5
A 7.000 1.000 9.000
B 1.000 4.000 5.000
C 7.000 9.000 5.000
D 1.000 7.000 7.000
E 9.000 2.000 9.000
5
A 7.000 1.000 9.000
B 1.000 4.000 5.000
C 7.000 9.000 5.000
D 1.000 7.000 7.000
E 9.000 2.000 9.000
5
A 7.000 1.001 8.999
B 1.000 4.000 5.001
C 7.000 9.000 5.001
D 1.000 7.000 6.999
E 8.999 2.000 8.999
5
A 7.000 1.001 8.998
B 1.000 3.999 5.002
C 7.000 8.999 5.002
D 1.000 7.000 6.999
E 8.999 2.001 8.998
5
A 7.000 1.003 8.997
B 1.001 3.999 5.003
C 7.000 8.998 5.003
D 1.001 7.000 7.000
E 8.998 2.001 8.997
5
A 7.000 1.004 8.995
B 1.001 3.998 5.005
C 7.000 8.996 5.005
D 1.001 7.000 7.000
E 8.998 2.002 8.995
5
A 7.000 1.006 8.993
B 1.002 3.997 5.008
C 7.000 8.994 5.008
D 1.002 7.000 6.999
E 8.997 2.003 8.993
5
A 7.000 1.008 8.990
B 1.002 3.996 5.010
C 7.000 8.992 5.010
D 1.002 7.000 6.999
E 8.995 2.003 8.990
5
A 7.000 1.011 8.987
B 1.003 3.995 5.013
C 7.000 8.989 5.013
D 1.003 7.000 7.000
E 8.993 2.004 8.987
5
A 7.001 1.014 8.983
B 1.004 3.994 5.017
C 7.001 8.987 5.017
D 1.004 7.000 7.000
E 8.991 2.005 8.983
5
A 7.001 1.018 8.979
B 1.005 3.993 5.021
C 7.001 8.983 5.021
D 1.005 7.000 6.999
E 8.989 2.006 8.979
5
A 7.001 1.021 8.975
B 1.006 3.991 5.026
C 7.001 8.980 5.026
D 1.006 7.000 6.999
E 8.987 2.008 8.975
5
A 7.001 1.025 8.970
B 1.007 3.990 5.030
C 7.001 8.976 5.030
D 1.007 7.000 7.000
E 8.985 2.009 8.970
5
A 7.000 1.030 8.965
B 1.008 3.988 5.035
C 7.000 8.972 5.035
D 1.008 7.000 7.000
E 8.983 2.010 8.965
5
A 7.000 1.035 8.959
B 1.009 3.986 5.041
C 7.000 8.967 5.041
D 1.009 7.000 6.999
E 8.981 2.012 8.959
5
A 7.000 1.040 8.953
B 1.011 3.984 5.047
C 7.000 8.962 5.047
D 1.011 7.000 6.999
E 8.979 2.013 8.953
5
A 7.000 1.046 8.946
B 1.012 3.982 5.054
C 7.000 8.957 5.054
D 1.012 7.000 7.000
E 8.976 2.015 8.946
5
A 7.000 1.052 8.939
B 1.014 3.980 5.061
C 7.000 8.952 5.061
D 1.014 7.000 7.000
E 8.972 2.017 8.939
5
A 7.000 1.058 8.932
B 1.016 3.977 5.068
C 7.000 8.946 5.068
D 1.016 7.000 6.999
E 8.968 2.019 8.932
5
A 7.001 1.065 8.925
B 1.017 3.975 5.076
C 7.001 8.939 5.076
D 1.017 7.000 6.999
E 8.964 2.021 8.925
5
A 7.001 1.072 8.916
B 1.019 3.972 5.084
C 7.001 8.933 5.084
D 1.019 7.000 7.000
E 8.960 2.023 8.916
5
A 7.001 1.080 8.908
B 1.021 3.969 5.092
C 7.001 8.926 5.092
D 1.021 7.000 7.000
E 8.955 2.025 8.908
5
A 7.001 1.087 8.899
B 1.024 3.967 5.101
C 7.001 8.918 5.101
D 1.024 7.000 6.999
E 8.951 2.028 8.899
5
A 7.001 1.096 8.889
B 1.026 3.963 5.111
C 7.001 8.911 5.111
D 1.026 7.000 6.999
E 8.947 2.030 8.889
5
A 7.001 1.104 8.879
B 1.028 3.960 5.121
C 7.001 8.903 5.121
D 1.028 7.000 7.000
E 8.942 2.033 8.879
5
A 7.001 1.113 8.869
B 1.030 3.957 5.131
C 7.001 8.895 5.131
D 1.030 7.000 7.000
E 8.938 2.035 8.869
5
A 7.001 1.122 8.859
B 1.033 3.954 5.142
C 7.001 8.887 5.142
D 1.033 7.000 6.999
E 8.933 2.038 8.859
5
A 7.000 1.132 8.848
B 1.035 3.950 5.153
C 7.000 8.878 5.153
D 1.035 6.999 6.999
E 8.929 2.041 8.848
5
A 7.000 1.142 8.836
B 1.038 3.946 5.164
C 7.000 8.868 5.164
D 1.038 7.000 7.000
E 8.924 2.044 8.836
5
A 7.000 1.153 8.824
B 1.041 3.942 5.176
C 7.000 8.859 5.176
D 1.041 7.000 7.000
E 8.919 2.047 8.824
5
A 7.000 1.163 8.812
B 1.044 3.939 5.188
C 7.000 8.848 5.188
D 1.044 7.000 6.999
E 8.913 2.050 8.812
5
A 7.000 1.175 8.799
B 1.047 3.934 5.201
C 7.000 8.838 5.201
D 1.047 7.000 6.999
E 8.906 2.053 8.799
5
A 7.000 1.186 8.786
B 1.050 3.930 5.214
C 7.000 8.827 5.214
D 1.050 7.000 7.000
E 8.899 2.057 8.786
5
A 7.001 1.198 8.772
B 1.053 3.926 5.228
C 7.001 8.816 5.228
D 1.053 7.000 7.000
E 8.893 2.060 8.772
5
A 7.001 1.210 8.759
B 1.056 3.921 5.242
C 7.001 8.804 5.242
D 1.056 7.000 6.999
E 8.886 2.064 8.759
5
A 7.001 1.223 8.744
B 1.060 3.917 5.256
C 7.001 8.793 5.256
D 1.060 7.000 6.999
E 8.879 2.067 8.744
5
A 7.001 1.236 8.729
B 1.063 3.912 5.271
C 7.001 8.781 5.271
D 1.063 7.000 7.000
E 8.872 2.071 8.729
5
A 7.001 1.249 8.714
B 1.067 3.907 5.286
C 7.001 8.768 5.286
D 1.067 7.000 7.000
E 8.865 2.075 8.714
5
A 7.000 1.263 8.698
B 1.070 3.902 5.302
C 7.000 8.756 5.302
D 1.070 7.000 6.999
E 8.859 2.079 8.698
5
A 7.000 1.277 8.682
B 1.074 3.897 5.318
C 7.000 8.742 5.318
D 1.074 7.000 6.999
E 8.852 2.083 8.682
5
A 7.000 1.292 8.666
B 1.078 3.892 5.334
C 7.000 8.729 5.334
D 1.078 7.000 7.000
E 8.844 2.087 8.666
5
A 7.000 1.307 8.649
B 1.082 3.886 5.351
C 7.000 8.715 5.351
D 1.082 7.000 7.000
E 8.837 2.091 8.649
5
A 6.992 1.311 8.632
B 1.086 3.881 5.369
C 7.000 8.701 5.369
D 1.086 7.000 6.999
E 8.836 2.106 8.632
5
A 6.985 1.316 8.614
B 1.090 3.875 5.386
C 7.000 8.687 5.386
D 1.090 7.000 6.999
E 8.835 2.122 8.614
5
A 6.978 1.322 8.596
B 1.095 3.869 5.404
C 7.000 8.672 5.404
D 1.095 7.000 7.000
E 8.833 2.137 8.596
5
A 6.971 1.328 8.577
B 1.099 3.864 5.423
C 7.000 8.657 5.423
D 1.099 7.000 7.000
E 8.831 2.152 8.577
5
A 6.964 1.334 8.558
B 1.103 3.857 5.442
C 7.001 8.641 5.442
D 1.103 7.000 6.999
E 8.828 2.167 8.558
5
A 6.958 1.340 8.539
B 1.108 3.851 5.462
C 7.001 8.626 5.462
D 1.108 7.000 6.999
E 8.825 2.183 8.539
5
A 6.952 1.347 8.519
B 1.113 3.845 5.481
C 7.001 8.610 5.481
D 1.113 7.000 7.000
E 8.822 2.198 8.519
5
A 6.946 1.354 8.498
B 1.118 3.838 5.502
C 7.000 8.593 5.502
D 1.118 7.000 7.000
E 8.819 2.214 8.498
5
A 6.940 1.362 8.478
B 1.123 3.832 5.522
C 7.000 8.576 5.522
D 1.123 7.000 6.999
E 8.815 2.230 8.478
5
A 6.934 1.370 8.457
B 1.128 3.825 5.543
C 7.000 8.559 5.543
D 1.128 7.000 6.999
E 8.811 2.246 8.457
5
A 6.929 1.378 8.435
B 1.133 3.818 5.565
C 7.000 8.542 5.565
D 1.133 7.000 7.000
E 8.806 2.262 8.435
5
A 6.923 1.387 8.413
B 1.138 3.811 5.587
C 7.000 8.524 5.587
D 1.138 7.000 7.000
E 8.800 2.278 8.413
5
A 6.918 1.396 8.391
B 1.143 3.804 5.609
C 7.000 8.505 5.609
D 1.143 7.000 6.999
E 8.795 2.294 8.391
5
A 6.913 1.406 8.368
B 1.149 3.797 5.632
C 7.000 8.487 5.632
D 1.149 7.000 6.999
E 8.788 2.311 8.368
5
A 6.909 1.415 8.345
B 1.155 3.790 5.655
C 7.000 8.468 5.655
D 1.155 7.000 7.000
E 8.782 2.327 8.345
5
A 6.904 1.426 8.322
B 1.160 3.782 5.678
C 7.000 8.449 5.678
D 1.160 7.000 7.000
E 8.775 2.343 8.322
5
A 6.900 1.436 8.298
B 1.166 3.775 5.703
C 7.000 8.429 5.703
D 1.166 7.000 6.999
E 8.768 2.360 8.298
5
A 6.896 1.447 8.273
B 1.172 3.767 5.727
C 7.000 8.410 5.727
D 1.172 7.000 6.999
E 8.760 2.377 8.273
5
A 6.892 1.458 8.248
B 1.178 3.759 5.752
C 7.000 8.389 5.752
D 1.178 7.000 7.000
E 8.751 2.394 8.248
5
A 6.889 1.470 8.223
B 1.184 3.751 5.777
C 7.000 8.369 5.777
D 1.184 7.000 7.000
E 8.742 2.411 8.223
5
A 6.885 1.482 8.198
B 1.191 3.743 5.803
C 7.001 8.348 5.803
D 1.191 7.000 6.999
E 8.733 2.428 8.198
5
A 6.882 1.494 8.171
B 1.197 3.734 5.829
C 7.001 8.326 5.829
D 1.197 7.000 6.999
E 8.723 2.445 8.171
5
A 6.879 1.507 8.145
B 1.203 3.726 5.855
C 7.001 8.305 5.855
D 1.203 7.000 7.000
E 8.713 2.462 8.145
5
A 6.876 1.520 8.118
B 1.210 3.717 5.882
C 7.000 8.283 5.882
D 1.210 7.000 7.000
E 8.703 2.479 8.118
5
A 6.874 1.534 8.091
B 1.217 3.709 5.910
C 7.000 8.261 5.910
D 1.217 7.000 6.999
E 8.693 2.497 8.091
5
A 6.872 1.548 8.063
B 1.223 3.700 5.937
C 7.000 8.238 5.937
D 1.223 7.000 6.999
E 8.682 2.514 8.063
5
A 6.869 1.562 8.035
B 1.230 3.691 5.965
C 7.000 8.215 5.965
D 1.230 7.000 7.000
E 8.670 2.532 8.035
5
A 6.867 1.577 8.006
B 1.237 3.682 5.994
C 7.000 8.192 5.994
D 1.237 7.000 7.000
E 8.658 2.550 8.006
5
A 6.866 1.592 7.977
B 1.245 3.673 6.023
C 7.000 8.168 6.023
D 1.245 7.000 6.999
E 8.646 2.567 7.977
5
A 6.864 1.607 7.948
B 1.252 3.663 6.052
C 7.000 8.144 6.052
D 1.252 7.000 6.999
E 8.632 2.585 7.948
5
A 6.863 1.623 7.919
B 1.259 3.654 6.081
C 7.000 8.120 6.081
D 1.259 7.000 6.998
E 8.619 2.604 7.919
5
A 6.862 1.639 7.891
B 1.267 3.644 6.111
C 7.001 8.095 6.111
D 1.267 7.000 6.998
E 8.605 2.622 7.891
5
A 6.861 1.655 7.862
B 1.274 3.634 6.140
C 7.001 8.070 6.140
D 1.274 7.000 6.997
E 8.590 2.640 7.862
5
A 6.846 1.674 7.833
B 1.282 3.625 6.169
C 7.001 8.045 6.169
D 1.282 7.000 6.996
E 8.589 2.656 7.833
5
A 6.833 1.693 7.804
B 1.290 3.615 6.198
C 7.001 8.020 6.198
D 1.290 7.000 6.996
E 8.587 2.673 7.804
5
A 6.819 1.712 7.775
B 1.298 3.604 6.227
C 7.001 7.994 6.227
D 1.298 7.000 6.995
E 8.585 2.690 7.775
5
A 6.805 1.732 7.746
B 1.306 3.594 6.256
C 7.001 7.968 6.256
D 1.306 6.999 6.995
E 8.583 2.707 7.746
5
A 6.792 1.752 7.718
B 1.314 3.584 6.285
C 7.000 7.941 6.285
D 1.314 6.999 6.994
E 8.580 2.724 7.718
5
A 6.779 1.773 7.689
B 1.322 3.573 6.315
C 7.000 7.915 6.315
D 1.322 6.998 6.993
E 8.577 2.741 7.689
5
A 6.766 1.794 7.660
B 1.330 3.563 6.344
C 7.000 7.888 6.344
D 1.330 6.997 6.993
E 8.574 2.758 7.660
5
A 6.753 1.815 7.631
B 1.339 3.552 6.373
C 7.000 7.861 6.373
D 1.339 6.996 6.992
E 8.570 2.776 7.631
5
A 6.741 1.837 7.602
B 1.347 3.542 6.402
C 7.000 7.835 6.402
D 1.347 6.994 6.992
E 8.565 2.793 7.602
5
A 6.728 1.859 7.573
B 1.356 3.531 6.431
C 7.000 7.808 6.431
D 1.356 6.992 6.991
E 8.560 2.811 7.573
5
A 6.716 1.881 7.544
B 1.365 3.520 6.460
C 7.000 7.780 6.460
D 1.365 6.990 6.990
E 8.554 2.829 7.544
5
A 6.704 1.904 7.516
B 1.374 3.509 6.490
C 7.001 7.753 6.490
D 1.374 6.988 6.990
E 8.547 2.847 7.516
5
A 6.693 1.927 7.487
B 1.383 3.498 6.519
C 7.001 7.725 6.519
D 1.383 6.985 6.989
E 8.541 2.865 7.487
5
A 6.681 1.950 7.458
B 1.392 3.487 6.548
C 7.001 7.698 6.548
D 1.392 6.982 6.989
E 8.534 2.883 7.458
5
A 6.670 1.974 7.429
B 1.401 3.475 6.577
C 7.002 7.670 6.577
D 1.401 6.979 6.988
E 8.526 2.901 7.429
5
A 6.659 1.999 7.400
B 1.410 3.464 6.606
C 7.002 7.642 6.606
D 1.410 6.976 6.987
E 8.519 2.919 7.400
5
A 6.648 2.023 7.371
B 1.420 3.453 6.635
C 7.002 7.614 6.635
D 1.420 6.972 6.987
E 8.510 2.938 7.371
5
A 6.637 2.048 7.342
B 1.429 3.441 6.664
C 7.002 7.585 6.664
D 1.429 6.968 6.986
E 8.502 2.957 7.342
5
A 6.627 2.073 7.314
B 1.439 3.430 6.694
C 7.002 7.557 6.694
D 1.439 6.964 6.986
E 8.493 2.975 7.314
5
A 6.617 2.098 7.285
B 1.449 3.420 6.723
C 7.002 7.528 6.723
D 1.449 6.960 6.985
E 8.484 2.994 7.285
5
A 6.607 2.123 7.256
B 1.459 3.409 6.752
C 7.001 7.499 6.752
D 1.459 6.955 6.984
E 8.475 3.013 7.256
5
A 6.597 2.149 7.227
B 1.469 3.399 6.781
C 7.001 7.470 6.781
D 1.469 6.950 6.984
E 8.465 3.032 7.227
5
A 6.587 2.174 7.198
B 1.479 3.388 6.810
C 7.001 7.441 6.810
D 1.479 6.944 6.983
E 8.455 3.052 7.198
5
A 6.578 2.200 7.169
B 1.489 3.379 6.839
C 7.000 7.412 6.839
D 1.489 6.938 6.983
E 8.444 3.072 7.169
5
A 6.568 2.225 7.140
B 1.499 3.369 6.869
C 7.000 7.382 6.869
D 1.499 6.932 6.982
E 8.433 3.091 7.140
5
A 6.559 2.251 7.112
B 1.510 3.359 6.898
C 7.000 7.352 6.898
D 1.510 6.926 6.981
E 8.422 3.111 7.112
5
A 6.550 2.277 7.083
B 1.520 3.350 6.927
C 7.000 7.322 6.927
D 1.520 6.919 6.981
E 8.410 3.132 7.083
5
A 6.542 2.303 7.054
B 1.531 3.341 6.956
C 7.000 7.292 6.956
D 1.531 6.912 6.980
E 8.397 3.152 7.054
5
A 6.533 2.329 7.025
B 1.542 3.332 6.985
C 7.000 7.262 6.985
D 1.542 6.904 6.980
E 8.383 3.173 7.025
5
A 6.525 2.356 6.996
B 1.552 3.323 7.014
C 7.000 7.231 7.014
D 1.552 6.897 6.979
E 8.369 3.194 6.996
5
A 6.517 2.382 6.967
B 1.563 3.315 7.043
C 7.001 7.200 7.043
D 1.563 6.888 6.978
E 8.355 3.215 6.967
5
A 6.509 2.409 6.938
B 1.575 3.306 7.073
C 7.001 7.169 7.073
D 1.575 6.880 6.978
E 8.341 3.236 6.938
5
A 6.502 2.435 6.910
B 1.586 3.298 7.102
C 7.001 7.138 7.102
D 1.586 6.871 6.977
E 8.326 3.258 6.910
5
A 6.494 2.462 6.881
B 1.597 3.290 7.131
C 7.001 7.106 7.131
D 1.597 6.862 6.977
E 8.311 3.279 6.881
5
A 6.479 2.484 6.852
B 1.608 3.283 7.160
C 7.001 7.075 7.160
D 1.608 6.852 6.976
E 8.303 3.306 6.852
5
A 6.465 2.506 6.823
B 1.620 3.275 7.189
C 7.001 7.043 7.189
D 1.620 6.842 6.975
E 8.295 3.334 6.823
5
A 6.450 2.528 6.794
B 1.632 3.268 7.218
C 7.001 7.011 7.218
D 1.632 6.832 6.975
E 8.286 3.361 6.794
5
A 6.436 2.550 6.765
B 1.643 3.261 7.248
C 7.000 6.979 7.248
D 1.643 6.821 6.974
E 8.277 3.389 6.765
5
A 6.421 2.573 6.737
B 1.655 3.254 7.277
C 7.000 6.946 7.277
D 1.655 6.811 6.974
E 8.268 3.416 6.737
5
A 6.407 2.595 6.708
B 1.667 3.248 7.306
C 7.000 6.913 7.306
D 1.667 6.799 6.973
E 8.259 3.445 6.708
5
A 6.394 2.618 6.679
B 1.679 3.241 7.335
C 6.999 6.880 7.335
D 1.679 6.788 6.972
E 8.249 3.473 6.679
5
A 6.380 2.641 6.650
B 1.691 3.235 7.364
C 6.999 6.847 7.364
D 1.691 6.776 6.972
E 8.238 3.502 6.650
5
A 6.367 2.664 6.621
B 1.704 3.230 7.393
C 7.000 6.813 7.393
D 1.704 6.763 6.971
E 8.226 3.531 6.621
5
A 6.353 2.687 6.592
B 1.716 3.224 7.422
C 7.000 6.778 7.422
D 1.716 6.751 6.971
E 8.214 3.560 6.592
5
A 6.340 2.710 6.563
B 1.729 3.219 7.452
C 7.001 6.744 7.452
D 1.729 6.738 6.970
E 8.202 3.589 6.563
5
A 6.328 2.733 6.535
B 1.741 3.214 7.481
C 7.001 6.709 7.481
D 1.741 6.725 6.969
E 8.189 3.619 6.535
5
A 6.315 2.757 6.506
B 1.754 3.209 7.510
C 7.001 6.674 7.510
D 1.754 6.711 6.969
E 8.176 3.649 6.506
5
A 6.303 2.781 6.477
B 1.767 3.205 7.539
C 7.001 6.638 7.539
D 1.767 6.697 6.968
E 8.162 3.680 6.477
5
A 6.291 2.804 6.448
B 1.780 3.201 7.568
C 7.001 6.602 7.568
D 1.780 6.683 6.968
E 8.149 3.710 6.448
5
A 6.279 2.829 6.419
B 1.793 3.197 7.597
C 7.001 6.566 7.597
D 1.793 6.668 6.967
E 8.134 3.741 6.419
5
A 6.267 2.853 6.390
B 1.806 3.193 7.627
C 7.001 6.529 7.627
D 1.806 6.653 6.966
E 8.120 3.772 6.390
5
A 6.255 2.877 6.361
B 1.819 3.190 7.656
C 7.001 6.492 7.656
D 1.819 6.637 6.966
E 8.105 3.803 6.361
5
A 6.244 2.901 6.333
B 1.833 3.187 7.685
C 7.001 6.455 7.685
D 1.833 6.622 6.965
E 8.090 3.835 6.333
5
A 6.233 2.926 6.304
B 1.846 3.184 7.714
C 7.001 6.417 7.714
D 1.846 6.606 6.965
E 8.074 3.867 6.304
5
A 6.222 2.951 6.275
B 1.860 3.182 7.743
C 7.001 6.379 7.743
D 1.860 6.589 6.964
E 8.058 3.899 6.275
5
A 6.211 2.976 6.246
B 1.873 3.180 7.772
C 7.000 6.341 7.772
D 1.873 6.573 6.963
E 8.042 3.932 6.246
5
A 6.201 3.001 6.217
B 1.887 3.178 7.801
C 7.000 6.302 7.801
D 1.887 6.556 6.963
E 8.025 3.964 6.217
5
A 6.190 3.026 6.188
B 1.901 3.176 7.831
C 7.000 6.263 7.831
D 1.901 6.538 6.962
E 8.008 3.997 6.188
5
A 6.180 3.052 6.159
B 1.915 3.174 7.860
C 7.000 6.223 7.860
D 1.915 6.520 6.962
E 7.990 4.030 6.159
5
A 6.170 3.078 6.131
B 1.929 3.173 7.889
C 6.999 6.183 7.889
D 1.929 6.502 6.961
E 7.972 4.064 6.131
5
A 6.160 3.104 6.102
B 1.944 3.172 7.918
C 6.999 6.143 7.918
D 1.944 6.483 6.960
E 7.954 4.099 6.102
5
A 6.149 3.130 6.073
B 1.958 3.172 7.947
C 6.999 6.101 7.947
D 1.958 6.463 6.960
E 7.936 4.134 6.073
5
A 6.139 3.157 6.044
B 1.973 3.171 7.976
C 6.998 6.060 7.976
D 1.973 6.443 6.959
E 7.918 4.169 6.044
5
A 6.128 3.184 6.015
B 1.987 3.171 8.006
C 6.998 6.017 8.006
D 1.987 6.422 6.959
E 7.899 4.206 6.015
5
A 6.117 3.211 5.987
B 2.002 3.171 8.034
C 6.997 5.974 8.034
D 2.002 6.401 6.959
E 7.881 4.242 5.987
5
A 6.107 3.239 5.959
B 2.017 3.172 8.061
C 6.997 5.931 8.061
D 2.017 6.379 6.959
E 7.863 4.280 5.959
5
A 6.096 3.267 5.931
B 2.032 3.173 8.089
C 6.996 5.887 8.089
D 2.032 6.357 6.960
E 7.844 4.317 5.931
5
A 6.084 3.295 5.904
B 2.048 3.174 8.115
C 6.995 5.842 8.115
D 2.048 6.334 6.962
E 7.825 4.355 5.904
5
A 6.073 3.324 5.877
B 2.063 3.176 8.141
C 6.993 5.797 8.141
D 2.063 6.310 6.965
E 7.807 4.393 5.877
5
A 6.062 3.353 5.850
B 2.079 3.179 8.167
C 6.992 5.751 8.167
D 2.079 6.286 6.968
E 7.788 4.431 5.850
5
A 6.050 3.383 5.823
B 2.095 3.181 8.191
C 6.991 5.704 8.191
D 2.095 6.261 6.971
E 7.769 4.470 5.823
5
A 6.038 3.413 5.797
B 2.111 3.185 8.216
C 6.989 5.657 8.216
D 2.111 6.236 6.975
E 7.750 4.509 5.797
5
A 6.026 3.444 5.771
B 2.128 3.188 8.239
C 6.987 5.609 8.239
D 2.128 6.210 6.980
E 7.731 4.548 5.771
5
A 6.014 3.475 5.745
B 2.144 3.192 8.263
C 6.985 5.561 8.263
D 2.144 6.184 6.986
E 7.712 4.587 5.745
5
A 6.002 3.507 5.719
B 2.161 3.197 8.285
C 6.983 5.512 8.285
D 2.161 6.157 6.992
E 7.692 4.627 5.719
5
A 5.990 3.539 5.694
B 2.178 3.202 8.307
C 6.981 5.463 8.307
D 2.178 6.129 6.998
E 7.673 4.667 5.694
5
A 5.977 3.571 5.669
B 2.195 3.207 8.329
C 6.978 5.413 8.329
D 2.195 6.101 7.005
E 7.653 4.708 5.669
5
A 5.965 3.604 5.644
B 2.213 3.213 8.350
C 6.976 5.362 8.350
D 2.213 6.073 7.012
E 7.633 4.749 5.644
5
A 5.953 3.637 5.620
B 2.231 3.219 8.371
C 6.973 5.311 8.371
D 2.231 6.043 7.018
E 7.612 4.790 5.620
5
A 5.941 3.671 5.597
B 2.249 3.226 8.391
C 6.970 5.259 8.391
D 2.249 6.014 7.023
E 7.591 4.831 5.597
5
A 5.929 3.705 5.574
B 2.267 3.233 8.412
C 6.967 5.206 8.412
D 2.267 5.983 7.028
E 7.570 4.873 5.574
5
A 5.916 3.740 5.552
B 2.286 3.241 8.432
C 6.964 5.153 8.432
D 2.286 5.952 7.032
E 7.548 4.914 5.552
5
A 5.904 3.775 5.530
B 2.304 3.249 8.452
C 6.961 5.099 8.452
D 2.304 5.921 7.036
E 7.526 4.956 5.530
5
A 5.892 3.811 5.509
B 2.323 3.258 8.471
C 6.957 5.045 8.471
D 2.323 5.889 7.039
E 7.504 4.998 5.509
5
A 5.880 3.848 5.489
B 2.343 3.267 8.491
C 6.954 4.990 8.491
D 2.343 5.856 7.041
E 7.481 5.039 5.489
5
A 5.857 3.890 5.469
B 2.362 3.277 8.510
C 6.950 4.935 8.510
D 2.362 5.823 7.043
E 7.468 5.075 5.469
5
A 5.845 3.926 5.449
B 2.382 3.288 8.528
C 6.946 4.880 8.528
D 2.382 5.789 7.044
E 7.445 5.117 5.449
5
A 5.822 3.969 5.431
B 2.402 3.299 8.547
C 6.942 4.825 8.547
D 2.402 5.754 7.045
E 7.432 5.153 5.431
5
A 5.809 4.005 5.412
B 2.422 3.311 8.565
C 6.938 4.770 8.565
D 2.422 5.719 7.045
E 7.408 5.194 5.412
5
A 5.785 4.047 5.395
B 2.443 3.324 8.583
C 6.934 4.715 8.583
D 2.443 5.683 7.044
E 7.395 5.231 5.395
5
A 5.772 4.083 5.378
B 2.464 3.337 8.601
C 6.929 4.661 8.601
D 2.464 5.648 7.043
E 7.371 5.272 5.378
5
A 5.748 4.124 5.361
B 2.485 3.351 8.618
C 6.924 4.606 8.618
D 2.485 5.612 7.041
E 7.358 5.308 5.361
5
A 5.734 4.160 5.345
B 2.506 3.365 8.635
C 6.920 4.551 8.635
D 2.506 5.575 7.039
E 7.333 5.349 5.345
5
A 5.710 4.201 5.330
B 2.528 3.380 8.652
C 6.915 4.496 8.652
D 2.528 5.539 7.036
E 7.319 5.385 5.330
5
A 5.696 4.237 5.315
B 2.550 3.395 8.669
C 6.910 4.441 8.669
D 2.550 5.502 7.032
E 7.295 5.425 5.315
5
A 5.671 4.278 5.301
B 2.572 3.411 8.685
C 6.904 4.386 8.685
D 2.572 5.464 7.028
E 7.280 5.461 5.301
5
A 5.657 4.313 5.287
B 2.594 3.428 8.701
C 6.899 4.331 8.701
D 2.594 5.427 7.023
E 7.255 5.501 5.287
5
A 5.632 4.354 5.274
B 2.617 3.445 8.717
C 6.893 4.276 8.717
D 2.617 5.389 7.018
E 7.241 5.536 5.274
5
A 5.618 4.389 5.261
B 2.640 3.463 8.733
C 6.888 4.221 8.733
D 2.640 5.351 7.012
E 7.215 5.576 5.261
5
A 5.592 4.429 5.249
B 2.663 3.482 8.748
C 6.882 4.166 8.748
D 2.663 5.312 7.005
E 7.200 5.611 5.249
5
A 5.577 4.464 5.238
B 2.686 3.501 8.763
C 6.876 4.111 8.763
D 2.686 5.274 6.998
E 7.174 5.651 5.238
5
A 5.551 4.503 5.227
B 2.710 3.521 8.778
C 6.870 4.056 8.778
D 2.710 5.234 6.992
E 7.159 5.685 5.227
5
A 5.536 4.538 5.216
B 2.734 3.541 8.792
C 6.863 4.001 8.792
D 2.734 5.195 6.986
E 7.133 5.725 5.216
5
A 5.510 4.577 5.205
B 2.758 3.562 8.805
C 6.857 3.947 8.805
D 2.758 5.155 6.980
E 7.117 5.759 5.205
5
A 5.494 4.611 5.195
B 2.783 3.583 8.818
C 6.850 3.892 8.818
D 2.783 5.115 6.975
E 7.090 5.798 5.195
5
A 5.468 4.650 5.185
B 2.807 3.605 8.830
C 6.844 3.839 8.830
D 2.807 5.074 6.971
E 7.074 5.831 5.185
5
A 5.451 4.684 5.175
B 2.832 3.628 8.841
C 6.837 3.785 8.841
D 2.832 5.033 6.968
E 7.047 5.870 5.175
5
A 5.425 4.722 5.165
B 2.858 3.651 8.853
C 6.830 3.733 8.853
D 2.858 4.991 6.965
E 7.031 5.903 5.165
5
A 5.408 4.755 5.156
B 2.883 3.675 8.863
C 6.822 3.681 8.863
D 2.883 4.949 6.962
E 7.004 5.940 5.156
5
A 5.381 4.793 5.147
B 2.909 3.699 8.873
C 6.815 3.629 8.873
D 2.909 4.907 6.960
E 6.987 5.973 5.147
5
A 5.364 4.825 5.138
B 2.935 3.723 8.882
C 6.808 3.577 8.882
D 2.935 4.865 6.959
E 6.959 6.010 5.138
5
A 5.336 4.863 5.130
B 2.961 3.747 8.891
C 6.800 3.526 8.891
D 2.961 4.823 6.959
E 6.942 6.041 5.130
5
A 5.319 4.895 5.121
B 2.988 3.772 8.899
C 6.792 3.474 8.899
D 2.988 4.781 6.959
E 6.914 6.078 5.121
5
A 5.291 4.931 5.113
B 3.014 3.797 8.907
C 6.784 3.423 8.907
D 3.014 4.740 6.959
E 6.897 6.109 5.113
5
A 5.272 4.963 5.106
B 3.042 3.821 8.914
C 6.776 3.372 8.914
D 3.042 4.699 6.960
E 6.868 6.145 5.106
5
A 5.243 4.999 5.098
B 3.070 3.846 8.921
C 6.767 3.321 8.921
D 3.070 4.659 6.962
E 6.850 6.175 5.098
5
A 5.224 5.030 5.091
B 3.098 3.871 8.927
C 6.759 3.270 8.927
D 3.098 4.618 6.965
E 6.820 6.211 5.091
5
A 5.194 5.064 5.084
B 3.127 3.897 8.932
C 6.750 3.220 8.932
D 3.127 4.578 6.968
E 6.801 6.241 5.084
5
A 5.174 5.094 5.078
B 3.157 3.923 8.937
C 6.740 3.170 8.937
D 3.157 4.539 6.971
E 6.771 6.275 5.078
5
A 5.144 5.127 5.071
B 3.187 3.949 8.941
C 6.731 3.120 8.941
D 3.187 4.499 6.975
E 6.751 6.304 5.071
5
A 5.123 5.156 5.065
B 3.218 3.976 8.945
C 6.721 3.071 8.945
D 3.218 4.460 6.980
E 6.720 6.337 5.065
5
A 5.091 5.188 5.059
B 3.250 4.003 8.948
C 6.711 3.023 8.948
D 3.250 4.422 6.986
E 6.699 6.365 5.059
5
A 5.070 5.216 5.054
B 3.282 4.030 8.951
C 6.701 2.974 8.951
D 3.282 4.383 6.992
E 6.667 6.396 5.054
5
A 5.037 5.247 5.048
B 3.314 3.992 8.956
C 6.690 2.927 8.953
D 3.314 4.411 6.995
E 6.645 6.423 5.048
5
A 5.014 5.274 5.043
B 3.347 3.954 8.961
C 6.679 2.880 8.954
D 3.347 4.438 6.999
E 6.612 6.454 5.043
5
A 4.981 5.304 5.039
B 3.381 3.916 8.965
C 6.668 2.834 8.955
D 3.381 4.466 7.003
E 6.589 6.480 5.039
5
A 4.959 5.330 5.034
B 3.415 3.879 8.969
C 6.656 2.788 8.955
D 3.415 4.493 7.007
E 6.555 6.510 5.034
5
A 4.926 5.359 5.031
B 3.449 3.842 8.973
C 6.644 2.743 8.956
D 3.449 4.521 7.010
E 6.533 6.535 5.031
5
A 4.903 5.384 5.028
B 3.483 3.806 8.976
C 6.631 2.698 8.956
D 3.483 4.548 7.012
E 6.499 6.564 5.028
5
A 4.870 5.413 5.025
B 3.518 3.770 8.980
C 6.618 2.653 8.956
D 3.518 4.576 7.014
E 6.476 6.588 5.025
5
A 4.848 5.436 5.023
B 3.553 3.735 8.983
C 6.604 2.609 8.955
D 3.553 4.603 7.016
E 6.442 6.617 5.023
5
A 4.815 5.464 5.022
B 3.588 3.700 8.985
C 6.589 2.566 8.954
D 3.588 4.631 7.016
E 6.419 6.640 5.022
5
A 4.793 5.487 5.021
B 3.624 3.665 8.988
C 6.574 2.523 8.953
D 3.624 4.658 7.017
E 6.386 6.667 5.021
5
A 4.759 5.514 5.021
B 3.660 3.631 8.990
C 6.558 2.481 8.952
D 3.660 4.685 7.016
E 6.363 6.689 5.021
5
A 4.737 5.535 5.021
B 3.696 3.597 8.992
C 6.542 2.439 8.951
D 3.696 4.713 7.015
E 6.329 6.715 5.021
5
A 4.704 5.561 5.022
B 3.732 3.564 8.993
C 6.525 2.398 8.949
D 3.732 4.740 7.013
E 6.306 6.737 5.022
5
A 4.682 5.582 5.024
B 3.769 3.531 8.995
C 6.508 2.357 8.947
D 3.769 4.768 7.011
E 6.273 6.762 5.024
5
A 4.649 5.607 5.026
B 3.806 3.499 8.996
C 6.490 2.317 8.944
D 3.806 4.795 7.008
E 6.250 6.782 5.026
5
A 4.627 5.627 5.028
B 3.843 3.467 8.997
C 6.471 2.277 8.942
D 3.843 4.823 7.005
E 6.216 6.807 5.028
5
A 4.594 5.651 5.031
B 3.880 3.435 8.997
C 6.452 2.238 8.939
D 3.880 4.850 7.001
E 6.194 6.826 5.031
5
A 4.572 5.669 5.035
B 3.918 3.404 8.998
C 6.432 2.199 8.936
D 3.918 4.878 6.996
E 6.160 6.849 5.035
5
A 4.539 5.693 5.039
B 3.956 3.374 8.997
C 6.412 2.161 8.932
D 3.956 4.905 6.992
E 6.138 6.868 5.039
5
A 4.517 5.710 5.044
B 3.994 3.343 8.997
C 6.391 2.123 8.928
D 3.994 4.933 6.989
E 6.104 6.890 5.044
5
A 4.484 5.733 5.048
B 4.032 3.314 8.995
C 6.370 2.086 8.923
D 4.032 4.960 6.986
E 6.081 6.908 5.048
5
A 4.462 5.750 5.053
B 4.071 3.284 8.993
C 6.348 2.049 8.917
D 4.071 4.988 6.984
E 6.047 6.929 5.053
5
A 4.429 5.771 5.058
B 4.111 3.255 8.991
C 6.325 2.013 8.911
D 4.111 5.015 6.982
E 6.025 6.946 5.058
5
A 4.406 5.787 5.063
B 4.151 3.227 8.988
C 6.300 1.977 8.905
D 4.151 5.042 6.981
E 5.990 6.967 5.063
5
A 4.372 5.807 5.069
B 4.192 3.199 8.984
C 6.276 1.942 8.898
D 4.192 5.069 6.981
E 5.968 6.983 5.069
5
A 4.350 5.823 5.075
B 4.233 3.172 8.980
C 6.250 1.907 8.890
D 4.233 5.095 6.981
E 5.934 7.003 5.075
5
A 4.317 5.843 5.081
B 4.274 3.145 8.975
C 6.223 1.872 8.882
D 4.274 5.121 6.981
E 5.912 7.018 5.081
5
A 4.295 5.858 5.087
B 4.315 3.119 8.969
C 6.195 1.838 8.873
D 4.315 5.148 6.983
E 5.879 7.038 5.087
5
A 4.262 5.877 5.094
B 4.357 3.092 8.964
C 6.167 1.805 8.864
D 4.357 5.174 6.985
E 5.857 7.051 5.094
5
A 4.241 5.891 5.101
B 4.399 3.067 8.957
C 6.137 1.772 8.854
D 4.399 5.200 6.987
E 5.824 7.070 5.101
5
A 4.207 5.910 5.108
B 4.442 3.041 8.950
C 6.107 1.740 8.843
D 4.442 5.226 6.991
E 5.802 7.083 5.108
5
A 4.186 5.923 5.116
B 4.484 3.016 8.942
C 6.075 1.708 8.832
D 4.484 5.251 6.994
E 5.769 7.102 5.116
5
A 4.154 5.941 5.123
B 4.527 2.991 8.934
C 6.043 1.676 8.820
D 4.527 5.277 6.999
E 5.748 7.114 5.123
5
A 4.133 5.954 5.131
B 4.571 2.967 8.925
C 6.010 1.645 8.808
D 4.571 5.303 7.004
E 5.716 7.131 5.131
5
A 4.101 5.971 5.140
B 4.538 2.936 8.913
C 6.053 1.621 8.799
D 4.614 5.329 7.008
E 5.695 7.143 5.140
5
A 4.080 5.983 5.149
B 4.505 2.905 8.900
C 6.094 1.597 8.790
D 4.658 5.355 7.012
E 5.662 7.160 5.149
5
A 4.048 6.000 5.159
B 4.473 2.875 8.887
C 6.135 1.573 8.780
D 4.702 5.381 7.015
E 5.642 7.171 5.159
5
A 4.028 6.011 5.169
B 4.441 2.845 8.874
C 6.174 1.549 8.770
D 4.747 5.407 7.017
E 5.610 7.187 5.169
5
A 3.996 6.027 5.180
B 4.410 2.815 8.860
C 6.213 1.526 8.760
D 4.791 5.434 7.019
E 5.590 7.198 5.180
5
A 3.976 6.038 5.191
B 4.378 2.786 8.846
C 6.251 1.502 8.750
D 4.837 5.460 7.021
E 5.558 7.214 5.191
5
A 3.945 6.054 5.203
B 4.347 2.756 8.832
C 6.288 1.479 8.739
D 4.882 5.487 7.022
E 5.538 7.224 5.203
5
A 3.925 6.064 5.216
B 4.317 2.727 8.818
C 6.325 1.456 8.728
D 4.928 5.513 7.022
E 5.506 7.239 5.216
5
A 3.894 6.079 5.229
B 4.286 2.699 8.803
C 6.361 1.433 8.717
D 4.974 5.540 7.021
E 5.486 7.249 5.229
5
A 3.874 6.089 5.243
B 4.256 2.670 8.788
C 6.396 1.411 8.706
D 5.020 5.567 7.020
E 5.454 7.264 5.243
5
A 3.843 6.103 5.257
B 4.227 2.642 8.773
C 6.431 1.388 8.694
D 5.066 5.594 7.019
E 5.434 7.273 5.257
5
A 3.824 6.112 5.272
B 4.197 2.614 8.758
C 6.465 1.366 8.682
D 5.111 5.621 7.016
E 5.403 7.287 5.272
5
A 3.793 6.126 5.287
B 4.168 2.586 8.742
C 6.499 1.343 8.670
D 5.157 5.648 7.013
E 5.383 7.296 5.287
5
A 3.775 6.135 5.303
B 4.139 2.559 8.726
C 6.532 1.321 8.657
D 5.202 5.675 7.010
E 5.352 7.310 5.303
5
A 3.744 6.149 5.320
B 4.110 2.531 8.710
C 6.565 1.299 8.645
D 5.247 5.702 7.006
E 5.334 7.318 5.320
5
A 3.726 6.157 5.337
B 4.082 2.504 8.694
C 6.597 1.278 8.631
D 5.291 5.729 7.001
E 5.303 7.332 5.337
5
A 3.697 6.170 5.355
B 4.054 2.478 8.677
C 6.629 1.256 8.618
D 5.335 5.757 6.996
E 5.285 7.339 5.355
5
A 3.679 6.178 5.372
B 4.027 2.451 8.659
C 6.661 1.235 8.604
D 5.379 5.784 6.991
E 5.254 7.352 5.372
5
A 3.649 6.190 5.391
B 3.999 2.425 8.642
C 6.692 1.213 8.590
D 5.423 5.812 6.987
E 5.236 7.359 5.391
5
A 3.632 6.198 5.409
B 3.973 2.399 8.623
C 6.723 1.192 8.575
D 5.466 5.840 6.984
E 5.206 7.372 5.409
5
A 3.603 6.210 5.428
B 3.947 2.373 8.604
C 6.754 1.171 8.559
D 5.508 5.867 6.981
E 5.189 7.378 5.428
5
A 3.586 6.216 5.447
B 3.921 2.348 8.584
C 6.784 1.150 8.543
D 5.550 5.895 6.979
E 5.159 7.390 5.447
5
A 3.557 6.228 5.466
B 3.897 2.323 8.564
C 6.814 1.130 8.526
D 5.591 5.923 6.977
E 5.141 7.396 5.466
5
A 3.540 6.234 5.486
B 3.873 2.298 8.544
C 6.844 1.109 8.509
D 5.632 5.951 6.976
E 5.111 7.408 5.486
5
A 3.511 6.245 5.505
B 3.850 2.273 8.522
C 6.874 1.089 8.491
D 5.672 5.980 6.976
E 5.094 7.413 5.505
5
A 3.494 6.251 5.525
B 3.828 2.249 8.500
C 6.903 1.069 8.473
D 5.711 6.008 6.976
E 5.064 7.424 5.525
5
A 3.465 6.261 5.546
B 3.807 2.225 8.478
C 6.932 1.049 8.454
D 5.750 6.036 6.977
E 5.047 7.430 5.546
5
A 3.448 6.267 5.566
B 3.786 2.201 8.455
C 6.961 1.029 8.434
D 5.788 6.064 6.978
E 5.017 7.440 5.566
5
A 3.419 6.277 5.587
B 3.766 2.177 8.431
C 6.989 1.009 8.414
D 5.825 6.092 6.980
E 5.000 7.445 5.587
5
A 3.403 6.282 5.608
B 3.746 2.153 8.407
C 7.017 0.989 8.394
D 5.862 6.120 6.983
E 4.971 7.456 5.608
5
A 3.375 6.293 5.630
B 3.727 2.130 8.383
C 7.045 0.970 8.372
D 5.899 6.147 6.986
E 4.955 7.461 5.630
5
A 3.358 6.298 5.651
B 3.708 2.106 8.357
C 7.072 0.951 8.350
D 5.935 6.175 6.989
E 4.927 7.471 5.651
5
A 3.331 6.308 5.673
B 3.690 2.082 8.331
C 7.098 0.932 8.328
D 5.971 6.202 6.994
E 4.910 7.476 5.673
5
A 3.315 6.313 5.696
B 3.672 2.058 8.305
C 7.123 0.914 8.305
D 6.007 6.229 6.999
E 4.883 7.486 5.696
5
A 3.288 6.322 5.718
B 3.654 2.034 8.278
C 7.149 0.897 8.282
D 6.042 6.257 7.004
E 4.868 7.491 5.718
5
A 3.272 6.327 5.741
B 3.636 2.010 8.251
C 7.174 0.879 8.258
D 6.077 6.284 7.009
E 4.841 7.500 5.741
5
A 3.246 6.337 5.765
B 3.618 1.985 8.223
C 7.199 0.862 8.234
D 6.111 6.311 7.014
E 4.826 7.505 5.765
5
A 3.231 6.341 5.789
B 3.601 1.961 8.196
C 7.223 0.845 8.209
D 6.145 6.338 7.017
E 4.800 7.515 5.789
5
A 3.205 6.351 5.814
B 3.584 1.937 8.168
C 7.247 0.829 8.185
D 6.178 6.365 7.021
E 4.786 7.519 5.814
5
A 3.191 6.355 5.839
B 3.567 1.913 8.139
C 7.271 0.812 8.160
D 6.210 6.391 7.023
E 4.760 7.529 5.839
5
A 3.166 6.364 5.865
B 3.551 1.889 8.111
C 7.295 0.795 8.135
D 6.242 6.418 7.025
E 4.747 7.533 5.865
5
A 3.153 6.369 5.891
B 3.534 1.866 8.082
C 7.318 0.779 8.109
D 6.273 6.445 7.026
E 4.722 7.542 5.891
5
A 3.128 6.378 5.918
B 3.518 1.842 8.053
C 7.341 0.763 8.084
D 6.304 6.471 7.027
E 4.709 7.546 5.918
5
A 3.115 6.382 5.946
B 3.502 1.819 8.023
C 7.364 0.746 8.058
D 6.334 6.497 7.027
E 4.685 7.556 5.946
5
A 3.091 6.391 5.974
B 3.486 1.795 7.994
C 7.386 0.730 8.032
D 6.363 6.524 7.027
E 4.673 7.560 5.974
5
A 3.079 6.395 6.003
B 3.471 1.772 7.964
C 7.409 0.714 8.005
D 6.392 6.550 7.026
E 4.649 7.569 6.003
5
A 3.056 6.404 6.032
B 3.455 1.749 7.933
C 7.431 0.698 7.978
D 6.421 6.576 7.025
E 4.638 7.573 6.032
5
A 3.045 6.408 6.061
B 3.440 1.726 7.903
C 7.452 0.682 7.951
D 6.448 6.602 7.024
E 4.615 7.582 6.061
5
A 3.022 6.417 6.090
B 3.425 1.703 7.873
C 7.474 0.666 7.924
D 6.476 6.628 7.023
E 4.604 7.585 6.090
5
A 3.011 6.420 6.119
B 3.410 1.681 7.843
C 7.495 0.650 7.897
D 6.502 6.654 7.022
E 4.581 7.594 6.119
5
A 2.989 6.429 6.149
B 3.396 1.658 7.812
C 7.516 0.635 7.870
D 6.528 6.680 7.021
E 4.571 7.598 6.149
5
A 2.979 6.433 6.178
B 3.381 1.636 7.782
C 7.536 0.619 7.843
D 6.554 6.706 7.020
E 4.549 7.606 6.178
5
A 2.958 6.441 6.207
B 3.367 1.614 7.752
C 7.556 0.604 7.816
D 6.579 6.732 7.019
E 4.539 7.610 6.207
5
A 2.948 6.445 6.236
B 3.353 1.592 7.722
C 7.576 0.588 7.789
D 6.604 6.757 7.018
E 4.518 7.618 6.236
5
A 2.928 6.453 6.265
B 3.340 1.570 7.691
C 7.596 0.573 7.762
D 6.628 6.783 7.017
E 4.509 7.622 6.265
5
A 2.919 6.456 6.294
B 3.326 1.548 7.661
C 7.616 0.558 7.735
D 6.651 6.808 7.015
E 4.488 7.630 6.294
5
A 2.898 6.465 6.324
B 3.313 1.526 7.631
C 7.635 0.543 7.708
D 6.674 6.834 7.014
E 4.479 7.633 6.324
5
A 2.890 6.468 6.353
B 3.300 1.504 7.601
C 7.654 0.528 7.680
D 6.697 6.859 7.013
E 4.459 7.641 6.353
5
A 2.870 6.476 6.382
B 3.287 1.483 7.570
C 7.673 0.513 7.653
D 6.719 6.884 7.012
E 4.451 7.645 6.382
5
A 2.863 6.479 6.411
B 3.274 1.462 7.540
C 7.691 0.498 7.626
D 6.741 6.909 7.011
E 4.431 7.653 6.411
5
A 2.843 6.487 6.440
B 3.262 1.440 7.510
C 7.709 0.483 7.599
D 6.762 6.934 7.010
E 4.424 7.656 6.440
5
A 2.836 6.490 6.469
B 3.249 1.419 7.480
C 7.727 0.468 7.572
D 6.782 6.959 7.009
E 4.405 7.663 6.469
5
A 2.818 6.497 6.499
B 3.237 1.398 7.450
C 7.745 0.454 7.545
D 6.802 6.984 7.008
E 4.398 7.666 6.499
5
A 2.811 6.500 6.528
B 3.226 1.377 7.419
C 7.763 0.439 7.518
D 6.822 7.009 7.007
E 4.379 7.674 6.528
5
A 2.793 6.508 6.557
B 3.214 1.357 7.389
C 7.780 0.425 7.491
D 6.841 7.034 7.006
E 4.373 7.677 6.557
5
A 2.787 6.511 6.586
B 3.202 1.336 7.359
C 7.797 0.411 7.464
D 6.859 7.058 7.005
E 4.355 7.684 6.586
5
A 2.769 6.518 6.615
B 3.191 1.316 7.329
C 7.813 0.396 7.437
D 6.877 7.083 7.004
E 4.349 7.687 6.615
5
A 2.764 6.521 6.644
B 3.180 1.295 7.298
C 7.830 0.382 7.410
D 6.895 7.108 7.003
E 4.331 7.694 6.644
5
A 2.747 6.528 6.674
B 3.169 1.275 7.268
C 7.846 0.368 7.383
D 6.912 7.132 7.002
E 4.326 7.697 6.674
5
A 2.742 6.530 6.703
B 3.159 1.255 7.238
C 7.862 0.354 7.356
D 6.928 7.157 7.001
E 4.309 7.704 6.703
5
A 2.725 6.537 6.732
B 3.148 1.235 7.208
C 7.878 0.340 7.329
D 6.944 7.181 7.000
E 4.304 7.706 6.732
5
A 2.721 6.540 6.761
B 3.138 1.215 7.177
C 7.893 0.326 7.302
D 6.959 7.205 6.999
E 4.288 7.714 6.761
5
A 2.705 6.547 6.790
B 3.128 1.195 7.147
C 7.908 0.313 7.275
D 6.974 7.230 6.998
E 4.284 7.716 6.790
5
A 2.701 6.549 6.819
B 3.119 1.176 7.117
C 7.923 0.299 7.248
D 6.989 7.254 6.997
E 4.268 7.723 6.819
5
A 2.686 6.556 6.849
B 3.109 1.156 7.087
C 7.938 0.286 7.220
D 7.003 7.278 6.996
E 4.264 7.725 6.849
5
A 2.683 6.558 6.878
B 3.100 1.137 7.056
C 7.952 0.272 7.193
D 7.016 7.302 6.995
E 4.249 7.732 6.878
5
A 2.668 6.565 6.907
B 3.090 1.117 7.026
C 7.966 0.259 7.166
D 7.030 7.326 6.994
E 4.246 7.734 6.907
5
A 2.665 6.566 6.936
B 3.081 1.098 6.996
C 7.980 0.245 7.139
D 7.043 7.350 6.993
E 4.231 7.740 6.936
5
A 2.650 6.573 6.965
B 3.072 1.079 6.966
C 7.994 0.232 7.112
D 7.056 7.374 6.991
E 4.228 7.742 6.965
5
A 2.648 6.575 6.994
B 3.064 1.060 6.935
C 8.007 0.219 7.085
D 7.068 7.398 6.990
E 4.213 7.749 6.994
5
A 2.634 6.581 7.024
B 3.055 1.041 6.905
C 8.020 0.206 7.058
D 7.081 7.422 6.989
E 4.211 7.750 7.024
5
A 2.631 6.583 7.053
B 3.046 1.022 6.875
C 8.033 0.193 7.031
D 7.093 7.445 6.988
E 4.196 7.757 7.053
5
A 2.617 6.589 7.082
B 3.038 1.004 6.845
C 8.046 0.180 7.004
D 7.105 7.469 6.987
E 4.194 7.758 7.082
5
A 2.615 6.591 7.111
B 3.030 0.985 6.815
C 8.059 0.167 6.977
D 7.116 7.493 6.986
E 4.180 7.765 7.111
5
A 2.602 6.597 7.140
B 3.021 0.967 6.784
C 8.072 0.154 6.950
D 7.128 7.516 6.985
E 4.178 7.766 7.140
5
A 2.600 6.598 7.169
B 3.013 0.948 6.754
C 8.084 0.142 6.923
D 7.139 7.540 6.984
E 4.164 7.772 7.169
5
A 2.587 6.604 7.199
B 3.005 0.930 6.724
C 8.096 0.129 6.896
D 7.150 7.563 6.983
E 4.162 7.773 7.199
5
A 2.585 6.605 7.228
B 2.998 0.912 6.694
C 8.108 0.117 6.869
D 7.160 7.587 6.982
E 4.149 7.779 7.228
5
A 2.572 6.611 7.257
B 2.990 0.894 6.663
C 8.120 0.104 6.842
D 7.170 7.610 6.981
E 4.147 7.781 7.257
5
A 2.571 6.612 7.286
B 2.983 0.876 6.633
C 8.132 0.092 6.815
D 7.181 7.634 6.980
E 4.133 7.786 7.286
5
A 2.558 6.618 7.315
B 2.976 0.858 6.603
C 8.144 0.080 6.788
D 7.190 7.657 6.979
E 4.132 7.787 7.315
5
A 2.556 6.619 7.344
B 2.970 0.840 6.573
C 8.155 0.067 6.760
D 7.200 7.680 6.978
E 4.118 7.793 7.344
5
A 2.543 6.625 7.374
B 2.964 0.822 6.542
C 8.167 0.055 6.733
D 7.210 7.703 6.977
E 4.116 7.794 7.374
5
A 2.542 6.626 7.403
B 2.959 0.804 6.512
C 8.178 0.043 6.706
D 7.219 7.726 6.976
E 4.103 7.800 7.403
5
A 2.529 6.632 7.432
B 2.954 0.787 6.482
C 8.189 0.031 6.679
D 7.228 7.750 6.975
E 4.101 7.801 7.432
5
A 2.527 6.632 7.461
B 2.949 0.769 6.452
C 8.200 0.020 6.652
D 7.236 7.773 6.974
E 4.088 7.806 7.461
5
A 2.514 6.638 7.490
B 2.944 0.752 6.421
C 8.211 0.008 6.625
D 7.245 7.796 6.973
E 4.086 7.807 7.490
5
A 2.513 6.638 7.520
B 2.940 0.734 6.391
C 8.222 0.000 6.598
D 7.253 7.819 6.972
E 4.072 7.813 7.520
5
A 2.499 6.644 7.549
B 2.937 0.717 6.361
C 8.232 0.000 6.571
D 7.261 7.842 6.971
E 4.070 7.813 7.549
5
A 2.498 6.644 7.578
B 2.934 0.700 6.331
C 8.243 0.000 6.544
D 7.269 7.864 6.970
E 4.057 7.818 7.578
5
A 2.485 6.650 7.607
B 2.931 0.683 6.300
C 8.253 0.000 6.517
D 7.277 7.887 6.969
E 4.055 7.819 7.607
5
A 2.483 6.650 7.636
B 2.928 0.666 6.270
C 8.263 0.001 6.490
D 7.284 7.910 6.968
E 4.041 7.824 7.636
5
A 2.470 6.655 7.665
B 2.926 0.649 6.240
C 8.273 0.001 6.463
D 7.291 7.933 6.966
E 4.040 7.824 7.665
5
A 2.469 6.655 7.695
B 2.925 0.632 6.210
C 8.283 0.002 6.436
D 7.298 7.955 6.965
E 4.026 7.830 7.695
5
A 2.455 6.661 7.724
B 2.923 0.615 6.180
C 8.292 0.002 6.409
D 7.305 7.978 6.964
E 4.024 7.830 7.724
5
A 2.454 6.661 7.753
B 2.922 0.598 6.149
C 8.302 0.003 6.382
D 7.311 8.000 6.963
E 4.011 7.835 7.753
5
A 2.441 6.666 7.782
B 2.922 0.582 6.119
C 8.311 0.004 6.355
D 7.317 8.023 6.962
E 4.009 7.835 7.782
5
A 2.439 6.666 7.811
B 2.922 0.565 6.089
C 8.321 0.005 6.328
D 7.323 8.045 6.961
E 3.995 7.840 7.811
5
A 2.426 6.672 7.840
B 2.921 0.549 6.059
C 8.330 0.005 6.300
D 7.329 8.066 6.960
E 3.994 7.840 7.840
5
A 2.425 6.672 7.870
B 2.921 0.532 6.028
C 8.339 0.006 6.273
D 7.335 8.087 6.959
E 3.980 7.846 7.870
5
A 2.411 6.678 7.899
B 2.921 0.516 5.998
C 8.348 0.007 6.246
D 7.340 8.108 6.958
E 3.979 7.846 7.899
5
A 2.410 6.679 7.928
B 2.922 0.500 5.968
C 8.357 0.009 6.219
D 7.346 8.129 6.957
E 3.966 7.852 7.928
5
A 2.397 6.684 7.956
B 2.922 0.483 5.939
C 8.365 0.010 6.192
D 7.351 8.149 6.956
E 3.965 7.853 7.956
5
A 2.396 6.685 7.984
B 2.922 0.467 5.911
C 8.374 0.011 6.165
D 7.356 8.169 6.955
E 3.952 7.858 7.984
5
A 2.383 6.691 8.012
B 2.923 0.451 5.883
C 8.382 0.012 6.138
D 7.360 8.188 6.954
E 3.951 7.859 8.012
5
A 2.383 6.692 8.040
B 2.923 0.435 5.856
C 8.391 0.014 6.112
D 7.365 8.208 6.954
E 3.939 7.865 8.040
5
A 2.370 6.699 8.066
B 2.924 0.420 5.828
C 8.399 0.015 6.086
D 7.370 8.226 6.954
E 3.938 7.866 8.066
5
A 2.370 6.700 8.092
B 2.924 0.404 5.801
C 8.407 0.017 6.061
D 7.374 8.245 6.954
E 3.925 7.872 8.092
5
A 2.357 6.706 8.117
B 2.925 0.388 5.775
C 8.415 0.019 6.036
D 7.378 8.263 6.956
E 3.925 7.873 8.117
