5
A 6.000 9.000 6.000
B 4.000 1.000 3.000
C 1.000 9.000 9.000
D 2.000 7.000 3.000
E 6.000 3.000 7.000
5
A 5.999 9.000 6.000
B 4.000 1.001 3.000
C 1.000 9.000 8.999
D 2.001 7.001 3.000
E 5.999 3.000 7.000
5
A 5.998 8.999 5.999
B 3.999 1.001 3.002
C 1.001 8.999 8.998
D 2.003 7.001 3.002
E 5.998 3.000 6.999
5
A 5.996 8.998 5.997
B 3.999 1.002 3.005
C 1.004 8.998 8.995
D 2.006 7.001 3.005
E 5.996 3.000 6.998
5
A 5.992 8.997 5.994
B 4.000 1.004 3.009
C 1.007 8.997 8.991
D 2.009 7.001 3.009
E 5.992 3.000 6.997
5
A 5.986 8.996 5.989
B 4.001 1.007 3.014
C 1.012 8.996 8.985
D 2.014 7.001 3.014
E 5.986 3.000 6.997
5
A 5.980 8.994 5.984
B 4.002 1.012 3.021
C 1.018 8.994 8.978
D 2.020 7.000 3.021
E 5.980 2.999 6.996
5
A 5.974 8.993 5.976
B 4.001 1.016 3.029
C 1.024 8.993 8.969
D 2.027 6.999 3.029
E 5.974 2.999 6.995
5
A 5.967 8.990 5.968
B 3.999 1.021 3.039
C 1.032 8.990 8.959
D 2.037 7.000 3.039
E 5.967 2.999 6.995
5
A 5.958 8.987 5.958
B 3.997 1.026 3.050
C 1.040 8.987 8.947
D 2.047 7.002 3.050
E 5.958 3.000 6.994
5
A 5.948 8.983 5.947
B 3.997 1.031 3.062
C 1.050 8.983 8.934
D 2.057 7.003 3.062
E 5.948 3.000 6.994
5
A 5.937 8.979 5.935
B 3.997 1.037 3.076
C 1.061 8.979 8.920
D 2.069 7.004 3.076
E 5.937 3.001 6.994
5
A 5.924 8.975 5.921
B 3.999 1.044 3.091
C 1.073 8.975 8.904
D 2.081 7.005 3.091
E 5.924 3.001 6.994
5
A 5.910 8.971 5.906
B 4.001 1.053 3.107
C 1.086 8.971 8.886
D 2.093 7.006 3.107
E 5.910 3.000 6.994
5
A 5.895 8.966 5.890
B 4.002 1.062 3.124
C 1.101 8.966 8.867
D 2.108 7.006 3.124
E 5.895 3.000 6.994
5
A 5.879 8.961 5.873
B 4.001 1.072 3.143
C 1.116 8.961 8.847
D 2.124 7.006 3.143
E 5.879 2.999 6.994
5
A 5.864 8.956 5.854
B 4.000 1.081 3.164
C 1.132 8.956 8.825
D 2.142 7.006 3.164
E 5.864 2.999 6.994
5
A 5.846 8.951 5.834
B 3.999 1.092 3.185
C 1.149 8.951 8.801
D 2.160 7.006 3.185
E 5.846 3.000 6.995
5
A 5.827 8.946 5.812
B 3.999 1.102 3.208
C 1.167 8.946 8.776
D 2.179 7.005 3.208
E 5.827 3.000 6.995
5
A 5.807 8.941 5.790
B 4.000 1.113 3.232
C 1.187 8.941 8.750
D 2.199 7.004 3.232
E 5.807 3.001 6.996
5
A 5.786 8.935 5.766
B 4.000 1.126 3.258
C 1.207 8.935 8.722
D 2.220 7.003 3.258
E 5.786 3.000 6.996
5
A 5.765 8.930 5.740
B 3.999 1.139 3.285
C 1.228 8.930 8.693
D 2.243 7.002 3.285
E 5.765 3.000 6.997
5
A 5.742 8.924 5.714
B 3.998 1.153 3.313
C 1.251 8.924 8.662
D 2.267 7.000 3.313
E 5.742 3.000 6.998
5
A 5.718 8.917 5.686
B 3.998 1.167 3.343
C 1.274 8.917 8.630
D 2.291 7.000 3.343
E 5.718 3.000 6.999
5
A 5.693 8.909 5.657
B 3.999 1.182 3.374
C 1.299 8.909 8.596
D 2.316 7.000 3.374
E 5.693 3.000 7.000
5
A 5.666 8.901 5.626
B 4.001 1.198 3.406
C 1.325 8.901 8.561
D 2.342 7.001 3.406
E 5.666 3.000 7.001
5
A 5.638 8.892 5.595
B 4.002 1.215 3.439
C 1.352 8.892 8.525
D 2.370 7.001 3.439
E 5.638 3.000 7.001
5
A 5.610 8.884 5.564
B 4.001 1.231 3.474
C 1.380 8.884 8.489
D 2.399 7.001 3.474
E 5.610 3.000 6.999
5
A 5.581 8.875 5.531
B 4.000 1.249 3.510
C 1.409 8.875 8.451
D 2.430 7.001 3.510
E 5.581 3.000 6.998
5
A 5.551 8.866 5.497
B 3.999 1.268 3.547
C 1.438 8.866 8.411
D 2.461 7.000 3.547
E 5.551 3.000 6.997
5
A 5.519 8.857 5.462
B 3.999 1.287 3.586
C 1.469 8.857 8.371
D 2.493 6.999 3.586
E 5.519 3.000 6.996
5
A 5.486 8.847 5.425
B 3.999 1.306 3.626
C 1.502 8.847 8.328
D 2.526 7.000 3.626
E 5.486 3.000 6.994
5
A 5.452 8.836 5.387
B 4.001 1.326 3.667
C 1.535 8.836 8.284
D 2.560 7.002 3.667
E 5.452 3.001 6.994
5
A 5.417 8.825 5.348
B 4.002 1.346 3.710
C 1.570 8.825 8.239
D 2.595 7.003 3.710
E 5.417 3.001 6.993
5
A 5.381 8.813 5.307
B 4.001 1.368 3.754
C 1.605 8.813 8.192
D 2.632 7.005 3.754
E 5.381 3.001 6.992
5
A 5.345 8.802 5.266
B 3.999 1.391 3.799
C 1.641 8.802 8.144
D 2.670 7.006 3.799
E 5.345 3.001 6.991
5
A 5.308 8.790 5.223
B 3.998 1.414 3.846
C 1.678 8.790 8.094
D 2.709 7.006 3.846
E 5.308 3.000 6.991
5
A 5.269 8.778 5.178
B 3.997 1.438 3.894
C 1.716 8.778 8.043
D 2.749 7.007 3.894
E 5.269 3.000 6.990
5
A 5.228 8.766 5.133
B 3.998 1.463 3.944
C 1.756 8.766 7.991
D 2.789 7.007 3.944
E 5.228 3.000 6.990
5
A 5.187 8.753 5.086
B 3.999 1.487 3.994
C 1.797 8.753 7.937
D 2.831 7.007 3.994
E 5.187 3.000 6.989
5
A 5.143 8.741 5.039
B 4.001 1.512 4.047
C 1.839 8.741 7.882
D 2.873 7.007 4.047
E 5.143 3.000 6.987
5
A 5.100 8.728 4.992
B 4.002 1.538 4.100
C 1.882 8.728 7.825
D 2.916 7.006 4.100
E 5.100 3.000 6.983
5
A 5.055 8.715 4.947
B 4.002 1.564 4.155
C 1.926 8.715 7.767
D 2.962 7.005 4.155
E 5.055 3.000 6.977
5
A 5.010 8.702 4.903
B 4.001 1.592 4.210
C 1.970 8.702 7.708
D 3.008 7.004 4.210
E 5.010 3.000 6.969
5
A 4.964 8.689 4.860
B 3.999 1.620 4.267
C 2.016 8.689 7.648
D 3.056 7.003 4.267
E 4.964 3.000 6.958
5
A 4.918 8.675 4.818
B 3.997 1.649 4.326
C 2.064 8.675 7.587
D 3.104 7.001 4.326
E 4.918 3.000 6.944
5
A 4.870 8.662 4.778
B 3.995 1.677 4.385
C 2.114 8.662 7.525
D 3.151 6.999 4.385
E 4.870 3.000 6.928
5
A 4.821 8.647 4.738
B 3.993 1.707 4.446
C 2.165 8.647 7.461
D 3.199 6.998 4.446
E 4.821 3.000 6.909
5
A 4.772 8.631 4.700
B 3.992 1.738 4.507
C 2.218 8.631 7.397
D 3.246 6.999 4.507
E 4.772 3.000 6.888
5
A 4.722 8.615 4.663
B 3.990 1.770 4.570
C 2.272 8.615 7.331
D 3.294 7.001 4.570
E 4.722 3.000 6.865
5
A 4.671 8.598 4.628
B 3.988 1.803 4.635
C 2.328 8.598 7.264
D 3.342 7.002 4.635
E 4.671 3.000 6.839
5
A 4.619 8.581 4.593
B 3.986 1.836 4.700
C 2.386 8.581 7.196
D 3.389 7.003 4.700
E 4.619 3.000 6.810
5
A 4.567 8.564 4.560
B 3.984 1.869 4.767
C 2.446 8.564 7.127
D 3.437 7.004 4.767
E 4.567 3.000 6.779
5
A 4.513 8.546 4.528
B 3.983 1.903 4.835
C 2.507 8.546 7.057
D 3.485 7.005 4.835
E 4.513 3.000 6.745
5
A 4.459 8.529 4.497
B 3.981 1.938 4.904
C 2.570 8.529 6.986
D 3.532 7.005 4.904
E 4.459 3.000 6.709
5
A 4.404 8.511 4.468
B 3.979 1.973 4.974
C 2.634 8.511 6.913
D 3.580 7.005 4.974
E 4.404 3.000 6.671
5
A 4.348 8.493 4.440
B 3.977 2.009 5.047
C 2.700 8.493 6.836
D 3.627 7.005 5.047
E 4.348 3.000 6.630
5
A 4.291 8.475 4.414
B 3.975 2.046 5.119
C 2.768 8.475 6.759
D 3.675 7.004 5.119
E 4.291 3.001 6.588
5
A 4.233 8.456 4.390
B 3.973 2.082 5.192
C 2.838 8.456 6.681
D 3.723 7.004 5.192
E 4.233 3.002 6.545
5
A 4.175 8.438 4.368
B 3.972 2.119 5.264
C 2.909 8.438 6.603
D 3.770 7.002 5.264
E 4.175 3.003 6.501
5
A 4.115 8.419 4.347
B 3.970 2.156 5.336
C 2.982 8.419 6.523
D 3.818 7.001 5.336
E 4.115 3.005 6.457
5
A 4.055 8.400 4.328
B 3.968 2.194 5.409
C 3.056 8.400 6.443
D 3.865 6.999 5.409
E 4.055 3.007 6.412
5
A 4.130 8.380 4.249
B 3.966 2.232 5.481
C 3.104 8.397 6.514
D 3.805 6.981 5.390
E 3.995 3.010 6.366
5
A 4.177 8.376 4.322
B 3.964 2.270 5.554
C 3.044 8.378 6.494
D 3.880 6.962 5.311
E 3.935 3.014 6.319
5
A 4.225 8.371 4.397
B 3.963 2.309 5.626
C 2.983 8.358 6.474
D 3.954 6.944 5.232
E 3.875 3.018 6.271
5
A 4.272 8.365 4.474
B 3.961 2.348 5.698
C 2.924 8.337 6.452
D 4.029 6.927 5.154
E 3.815 3.023 6.222
5
A 4.318 8.357 4.552
B 3.959 2.388 5.771
C 2.866 8.314 6.429
D 4.102 6.911 5.075
E 3.754 3.029 6.173
5
A 4.363 8.349 4.632
B 3.957 2.428 5.843
C 2.810 8.291 6.406
D 4.175 6.897 4.996
E 3.694 3.035 6.123
5
A 4.407 8.340 4.713
B 3.955 2.468 5.916
C 2.756 8.267 6.381
D 4.247 6.883 4.919
E 3.634 3.042 6.071
5
A 4.450 8.330 4.797
B 3.954 2.509 5.988
C 2.704 8.241 6.354
D 4.319 6.871 4.844
E 3.574 3.050 6.017
5
A 4.493 8.318 4.881
B 3.952 2.550 6.060
C 2.653 8.215 6.326
D 4.389 6.859 4.770
E 3.514 3.058 5.962
5
A 4.535 8.306 4.968
B 3.950 2.592 6.131
C 2.603 8.187 6.296
D 4.458 6.849 4.698
E 3.454 3.067 5.907
5
A 4.576 8.292 5.056
B 3.948 2.633 6.200
C 2.556 8.159 6.264
D 4.527 6.840 4.628
E 3.393 3.076 5.852
5
A 4.616 8.278 5.145
B 3.946 2.676 6.268
C 2.510 8.129 6.232
D 4.595 6.831 4.559
E 3.333 3.086 5.796
5
A 4.655 8.262 5.233
B 3.945 2.718 6.336
C 2.465 8.098 6.198
D 4.662 6.824 4.492
E 3.273 3.097 5.741
5
A 4.694 8.245 5.321
B 3.943 2.762 6.402
C 2.423 8.067 6.164
D 4.728 6.818 4.427
E 3.213 3.108 5.686
5
A 4.731 8.227 5.409
B 3.941 2.805 6.468
C 2.382 8.034 6.129
D 4.793 6.813 4.363
E 3.153 3.120 5.630
5
A 4.768 8.209 5.498
B 3.939 2.849 6.533
C 2.342 8.000 6.093
D 4.858 6.810 4.301
E 3.093 3.133 5.575
5
A 4.804 8.189 5.586
B 3.937 2.893 6.597
C 2.305 7.966 6.057
D 4.922 6.806 4.241
E 3.032 3.146 5.520
5
A 4.839 8.168 5.674
B 3.936 2.938 6.660
C 2.269 7.931 6.019
D 4.984 6.803 4.182
E 2.972 3.160 5.465
5
A 4.872 8.146 5.762
B 3.934 2.983 6.723
C 2.234 7.896 5.981
D 5.046 6.800 4.125
E 2.914 3.175 5.409
5
A 4.904 8.123 5.850
B 3.933 3.029 6.784
C 2.201 7.861 5.942
D 5.105 6.797 4.069
E 2.857 3.191 5.354
5
A 4.934 8.098 5.939
B 3.933 3.075 6.845
C 2.169 7.825 5.904
D 5.163 6.794 4.014
E 2.800 3.207 5.299
5
A 4.963 8.073 6.027
B 3.933 3.122 6.905
C 2.139 7.789 5.866
D 5.220 6.792 3.959
E 2.746 3.224 5.244
5
A 4.990 8.047 6.115
B 3.935 3.170 6.964
C 2.109 7.753 5.826
D 5.274 6.789 3.907
E 2.692 3.241 5.188
5
A 5.015 8.019 6.202
B 3.937 3.218 7.024
C 2.081 7.716 5.786
D 5.328 6.787 3.857
E 2.639 3.260 5.131
5
A 5.038 7.991 6.290
B 3.941 3.268 7.081
C 2.053 7.678 5.746
D 5.379 6.785 3.810
E 2.588 3.279 5.074
5
A 5.060 7.962 6.376
B 3.947 3.318 7.136
C 2.027 7.641 5.706
D 5.430 6.781 3.765
E 2.537 3.298 5.017
5
A 5.080 7.932 6.463
B 3.954 3.368 7.190
C 2.001 7.603 5.666
D 5.478 6.778 3.722
E 2.486 3.319 4.960
5
A 5.099 7.902 6.548
B 3.963 3.420 7.242
C 1.975 7.564 5.626
D 5.525 6.773 3.680
E 2.437 3.340 4.904
5
A 5.117 7.872 6.632
B 3.973 3.472 7.292
C 1.951 7.525 5.586
D 5.571 6.768 3.640
E 2.388 3.363 4.850
5
A 5.133 7.842 6.715
B 3.984 3.525 7.342
C 1.928 7.486 5.546
D 5.615 6.762 3.601
E 2.340 3.386 4.796
5
A 5.147 7.811 6.796
B 3.995 3.579 7.390
C 1.907 7.446 5.506
D 5.658 6.755 3.564
E 2.293 3.409 4.744
5
A 5.160 7.779 6.877
B 4.008 3.634 7.436
C 1.887 7.405 5.466
D 5.699 6.748 3.528
E 2.246 3.434 4.693
5
A 5.173 7.747 6.956
B 4.019 3.690 7.481
C 1.867 7.365 5.426
D 5.740 6.739 3.494
E 2.201 3.459 4.644
5
A 5.185 7.715 7.034
B 4.029 3.746 7.525
C 1.848 7.324 5.386
D 5.780 6.730 3.461
E 2.158 3.485 4.595
5
A 5.196 7.682 7.110
B 4.038 3.803 7.567
C 1.830 7.282 5.347
D 5.819 6.721 3.429
E 2.116 3.512 4.547
5
A 5.207 7.649 7.185
B 4.045 3.861 7.608
C 1.813 7.240 5.308
D 5.858 6.710 3.398
E 2.076 3.540 4.500
5
A 5.217 7.615 7.259
B 4.052 3.919 7.647
C 1.797 7.198 5.271
D 5.897 6.699 3.369
E 2.037 3.569 4.454
5
A 5.227 7.581 7.331
B 4.057 3.979 7.685
C 1.781 7.155 5.234
D 5.935 6.687 3.341
E 2.000 3.598 4.408
5
A 5.236 7.547 7.402
B 4.061 4.039 7.722
C 1.767 7.112 5.198
D 5.972 6.674 3.314
E 1.965 3.628 4.364
5
A 5.245 7.512 7.472
B 4.064 4.101 7.757
C 1.753 7.068 5.163
D 6.009 6.660 3.289
E 1.930 3.659 4.320
5
A 5.253 7.476 7.540
B 4.067 4.164 7.790
C 1.739 7.024 5.129
D 6.045 6.645 3.264
E 1.896 3.690 4.276
5
A 5.261 7.440 7.606
B 4.071 4.229 7.823
C 1.727 6.979 5.096
D 6.079 6.629 3.241
E 1.863 3.723 4.234
5
A 5.268 7.403 7.672
B 4.074 4.296 7.854
C 1.715 6.933 5.063
D 6.113 6.611 3.220
E 1.830 3.756 4.192
5
A 5.275 7.366 7.736
B 4.078 4.365 7.883
C 1.704 6.885 5.031
D 6.145 6.593 3.199
E 1.798 3.791 4.151
5
A 5.282 7.328 7.798
B 4.081 4.436 7.911
C 1.693 6.837 5.001
D 6.177 6.573 3.180
E 1.767 3.826 4.111
5
A 5.288 7.290 7.859
B 4.085 4.509 7.938
C 1.683 6.787 4.970
D 6.207 6.552 3.162
E 1.737 3.862 4.071
5
A 5.294 7.251 7.919
B 4.089 4.584 7.964
C 1.674 6.736 4.941
D 6.236 6.529 3.144
E 1.707 3.899 4.032
5
A 5.299 7.211 7.978
B 4.093 4.662 7.988
C 1.666 6.684 4.913
D 6.264 6.506 3.127
E 1.678 3.937 3.994
5
A 5.304 7.171 8.036
B 4.097 4.741 8.012
C 1.659 6.631 4.885
D 6.291 6.481 3.110
E 1.650 3.976 3.956
5
A 5.308 7.130 8.094
B 4.101 4.822 8.036
C 1.652 6.576 4.857
D 6.317 6.455 3.094
E 1.622 4.016 3.919
5
A 5.312 7.088 8.152
B 4.105 4.905 8.059
C 1.646 6.520 4.830
D 6.342 6.428 3.077
E 1.595 4.059 3.882
5
A 5.316 7.046 8.208
B 4.110 4.991 8.081
C 1.640 6.462 4.804
D 6.365 6.398 3.061
E 1.569 4.103 3.845
5
A 5.319 7.003 8.265
B 4.114 5.078 8.103
C 1.635 6.403 4.778
D 6.388 6.367 3.046
E 1.544 4.149 3.808
5
A 5.322 6.959 8.321
B 4.118 5.166 8.125
C 1.631 6.342 4.752
D 6.409 6.336 3.030
E 1.519 4.197 3.772
5
A 5.325 6.914 8.376
B 4.123 5.255 8.146
C 1.628 6.281 4.727
D 6.430 6.303 3.015
E 1.495 4.248 3.736
5
A 5.327 6.868 8.431
B 4.128 5.343 8.167
C 1.625 6.219 4.702
D 6.449 6.269 3.000
E 1.472 4.301 3.700
5
A 5.328 6.821 8.486
B 4.132 5.431 8.187
C 1.623 6.156 4.677
D 6.467 6.235 2.985
E 1.449 4.357 3.664
5
A 5.329 6.774 8.540
B 4.137 5.519 8.207
C 1.622 6.092 4.653
D 6.484 6.200 2.972
E 1.427 4.415 3.629
5
A 5.330 6.725 8.593
B 4.142 5.607 8.226
C 1.622 6.028 4.627
D 6.500 6.164 2.959
E 1.406 4.475 3.594
5
A 5.330 6.676 8.647
B 4.147 5.696 8.245
C 1.622 5.962 4.602
D 6.515 6.127 2.948
E 1.385 4.539 3.559
5
A 5.330 6.626 8.699
B 4.152 5.784 8.263
C 1.623 5.897 4.575
D 6.529 6.090 2.937
E 1.366 4.604 3.525
5
A 5.330 6.575 8.752
B 4.158 5.872 8.281
C 1.625 5.831 4.549
D 6.541 6.051 2.928
E 1.347 4.670 3.490
5
A 5.329 6.523 8.804
B 4.163 5.960 8.299
C 1.627 5.766 4.522
D 6.553 6.012 2.919
E 1.328 4.738 3.457
5
A 5.328 6.471 8.855
B 4.168 6.048 8.316
C 1.630 5.701 4.494
D 6.563 5.972 2.912
E 1.311 4.808 3.423
5
A 5.326 6.418 8.906
B 4.174 6.136 8.333
C 1.634 5.635 4.467
D 6.572 5.932 2.905
E 1.294 4.880 3.389
5
A 5.324 6.363 8.957
B 4.180 6.222 8.349
C 1.639 5.570 4.438
D 6.581 5.892 2.900
E 1.278 4.953 3.356
5
A 5.321 6.308 9.007
B 4.185 6.308 8.365
C 1.644 5.504 4.410
D 6.588 5.851 2.895
E 1.262 5.028 3.323
5
A 5.318 6.253 9.057
B 4.191 6.394 8.380
C 1.650 5.439 4.381
D 6.594 5.811 2.892
E 1.247 5.103 3.291
5
A 5.315 6.198 9.106
B 4.197 6.479 8.395
C 1.656 5.374 4.351
D 6.599 5.771 2.889
E 1.233 5.178 3.258
5
A 5.311 6.143 9.156
B 4.203 6.565 8.410
C 1.664 5.308 4.321
D 6.603 5.731 2.888
E 1.220 5.252 3.226
5
A 5.306 6.088 9.205
B 4.209 6.651 8.424
C 1.672 5.243 4.290
D 6.605 5.691 2.887
E 1.207 5.327 3.194
5
A 5.302 6.033 9.253
B 4.215 6.737 8.437
C 1.681 5.177 4.259
D 6.607 5.651 2.888
E 1.195 5.402 3.162
5
A 5.297 5.978 9.302
B 4.221 6.822 8.451
C 1.690 5.112 4.228
D 6.607 5.611 2.889
E 1.184 5.477 3.131
5
A 5.291 5.923 9.350
B 4.228 6.908 8.463
C 1.700 5.047 4.196
D 6.607 5.571 2.892
E 1.174 5.552 3.099
5
A 5.285 5.868 9.398
B 4.234 6.994 8.476
C 1.711 4.981 4.163
D 6.605 5.530 2.895
E 1.164 5.627 3.068
5
A 5.279 5.813 9.445
B 4.241 7.079 8.488
C 1.723 4.917 4.130
D 6.602 5.490 2.900
E 1.155 5.702 3.037
5
A 5.272 5.758 9.492
B 4.247 7.161 8.499
C 1.735 4.853 4.096
D 6.599 5.451 2.905
E 1.147 5.777 3.007
5
A 5.265 5.705 9.539
B 4.254 7.240 8.510
C 1.748 4.789 4.062
D 6.594 5.412 2.912
E 1.139 5.854 2.976
5
A 5.257 5.653 9.586
B 4.261 7.316 8.521
C 1.762 4.725 4.027
D 6.588 5.375 2.919
E 1.132 5.931 2.947
5
A 5.249 5.601 9.632
B 4.268 7.389 8.531
C 1.777 4.662 3.990
D 6.580 5.338 2.928
E 1.126 6.010 2.919
5
A 5.241 5.550 9.678
B 4.275 7.461 8.541
C 1.792 4.600 3.954
D 6.572 5.302 2.936
E 1.120 6.087 2.890
5
A 5.232 5.500 9.724
B 4.282 7.530 8.551
C 1.808 4.540 3.918
D 6.563 5.267 2.945
E 1.116 6.164 2.862
5
A 5.223 5.451 9.770
B 4.289 7.597 8.560
C 1.825 4.480 3.881
D 6.552 5.233 2.954
E 1.111 6.239 2.834
5
A 5.213 5.402 9.816
B 4.296 7.662 8.569
C 1.842 4.422 3.846
D 6.541 5.199 2.963
E 1.108 6.314 2.807
5
A 5.203 5.355 9.861
B 4.304 7.726 8.578
C 1.860 4.365 3.810
D 6.528 5.167 2.973
E 1.105 6.388 2.779
5
A 5.192 5.308 9.906
B 4.311 7.787 8.586
C 1.879 4.309 3.775
D 6.514 5.135 2.982
E 1.103 6.461 2.752
5
A 5.182 5.262 9.951
B 4.319 7.846 8.594
C 1.898 4.254 3.740
D 6.499 5.104 2.992
E 1.102 6.534 2.724
5
A 5.170 5.217 9.995
B 4.326 7.903 8.602
C 1.918 4.201 3.705
D 6.483 5.074 3.001
E 1.102 6.605 2.697
5
A 5.158 5.173 9.961
B 4.334 7.958 8.609
C 1.939 4.149 3.670
D 6.466 5.045 3.011
E 1.102 6.676 2.670
5
A 5.146 5.129 9.916
B 4.342 8.011 8.616
C 1.961 4.098 3.636
D 6.448 5.016 3.022
E 1.103 6.746 2.643
5
A 5.134 5.086 9.871
B 4.350 8.062 8.623
C 1.983 4.048 3.601
D 6.429 4.988 3.032
E 1.105 6.816 2.617
5
A 5.121 5.044 9.826
B 4.358 8.112 8.629
C 2.006 3.999 3.567
D 6.408 4.961 3.043
E 1.107 6.885 2.590
5
A 5.107 5.001 9.781
B 4.366 8.160 8.635
C 2.031 3.951 3.534
D 6.387 4.935 3.054
E 1.110 6.954 2.564
5
A 5.093 4.957 9.735
B 4.373 8.206 8.640
C 2.057 3.905 3.500
D 6.364 4.910 3.065
E 1.114 7.022 2.538
5
A 5.078 4.914 9.689
B 4.380 8.252 8.645
C 2.084 3.859 3.467
D 6.340 4.886 3.076
E 1.118 7.089 2.512
5
A 5.063 4.872 9.643
B 4.386 8.298 8.650
C 2.113 3.813 3.434
D 6.315 4.862 3.088
E 1.123 7.156 2.486
5
A 5.047 4.830 9.597
B 4.392 8.342 8.655
C 2.143 3.768 3.401
D 6.289 4.839 3.100
E 1.129 7.221 2.460
5
A 5.030 4.789 9.550
B 4.398 8.387 8.659
C 2.174 3.723 3.368
D 6.261 4.816 3.112
E 1.136 7.286 2.435
5
A 5.013 4.748 9.504
B 4.404 8.430 8.663
C 2.207 3.679 3.336
D 6.233 4.794 3.124
E 1.143 7.349 2.409
5
A 4.996 4.708 9.457
B 4.409 8.474 8.666
C 2.242 3.634 3.304
D 6.203 4.772 3.136
E 1.151 7.412 2.384
5
A 4.978 4.668 9.409
B 4.413 8.516 8.669
C 2.278 3.591 3.272
D 6.171 4.752 3.149
E 1.160 7.473 2.359
5
A 4.959 4.629 9.362
B 4.418 8.558 8.672
C 2.316 3.547 3.240
D 6.137 4.731 3.162
E 1.170 7.534 2.334
5
A 4.940 4.591 9.314
B 4.422 8.600 8.674
C 2.356 3.504 3.208
D 6.101 4.712 3.175
E 1.181 7.594 2.309
5
A 4.921 4.553 9.266
B 4.425 8.641 8.676
C 2.398 3.461 3.177
D 6.063 4.692 3.189
E 1.192 7.653 2.285
5
A 4.902 4.516 9.217
B 4.428 8.681 8.678
C 2.442 3.418 3.146
D 6.024 4.674 3.202
E 1.205 7.710 2.260
5
A 4.882 4.479 9.169
B 4.431 8.721 8.679
C 2.487 3.376 3.115
D 5.982 4.656 3.216
E 1.218 7.767 2.236
5
A 4.861 4.443 9.120
B 4.433 8.761 8.680
C 2.535 3.334 3.085
D 5.939 4.638 3.230
E 1.232 7.823 2.212
5
A 4.838 4.408 9.071
B 4.433 8.799 8.680
C 2.585 3.293 3.054
D 5.896 4.622 3.244
E 1.247 7.878 2.188
5
A 4.815 4.373 9.021
B 4.432 8.838 8.680
C 2.636 3.252 3.024
D 5.853 4.605 3.259
E 1.263 7.932 2.165
5
A 4.790 4.339 8.972
B 4.430 8.875 8.680
C 2.690 3.211 2.994
D 5.808 4.590 3.274
E 1.281 7.985 2.141
5
A 4.764 4.305 8.922
B 4.427 8.912 8.680
C 2.746 3.171 2.965
D 5.764 4.574 3.289
E 1.299 8.038 2.118
5
A 4.737 4.272 8.872
B 4.423 8.949 8.679
C 2.804 3.130 2.935
D 5.718 4.560 3.304
E 1.318 8.089 2.094
5
A 4.709 4.239 8.821
B 4.417 8.985 8.678
C 2.864 3.090 2.906
D 5.672 4.546 3.319
E 1.338 8.140 2.071
5
A 4.679 4.206 8.770
B 4.410 9.020 8.676
C 2.926 3.051 2.876
D 5.626 4.532 3.335
E 1.358 8.191 2.048
5
A 4.649 4.174 8.719
B 4.402 9.056 8.674
C 2.990 3.011 2.847
D 5.579 4.518 3.351
E 1.380 8.241 2.026
5
A 4.617 4.142 8.667
B 4.393 9.090 8.672
C 3.056 2.972 2.819
D 5.531 4.505 3.368
E 1.403 8.290 2.003
5
A 4.584 4.110 8.615
B 4.384 9.125 8.670
C 3.122 2.935 2.790
D 5.482 4.491 3.384
E 1.428 8.339 1.981
5
A 4.552 4.077 8.563
B 4.374 9.159 8.667
C 3.188 2.899 2.762
D 5.433 4.477 3.400
E 1.454 8.387 1.960
5
A 4.519 4.044 8.511
B 4.363 9.193 8.664
C 3.254 2.866 2.733
D 5.382 4.463 3.416
E 1.482 8.435 1.939
5
A 4.485 4.010 8.458
B 4.353 9.226 8.661
C 3.320 2.834 2.705
D 5.330 4.447 3.431
E 1.512 8.483 1.920
5
A 4.452 3.976 8.405
B 4.342 9.259 8.657
C 3.386 2.804 2.677
D 5.277 4.432 3.445
E 1.544 8.529 1.901
5
A 4.417 3.942 8.352
B 4.330 9.292 8.653
C 3.452 2.774 2.650
D 5.223 4.416 3.459
E 1.577 8.576 1.884
5
A 4.383 3.908 8.298
B 4.318 9.324 8.649
C 3.518 2.746 2.622
D 5.168 4.399 3.472
E 1.613 8.622 1.868
5
A 4.348 3.875 8.244
B 4.306 9.357 8.644
C 3.584 2.719 2.595
D 5.112 4.382 3.485
E 1.650 8.667 1.852
5
A 4.313 3.841 8.190
B 4.294 9.389 8.640
C 3.650 2.693 2.568
D 5.055 4.364 3.497
E 1.689 8.712 1.838
5
A 4.277 3.808 8.136
B 4.281 9.420 8.634
C 3.716 2.668 2.541
D 4.997 4.346 3.508
E 1.729 8.757 1.824
5
A 4.241 3.775 8.081
B 4.267 9.451 8.629
C 3.781 2.644 2.514
D 4.939 4.328 3.519
E 1.772 8.801 1.811
5
A 4.205 3.743 8.026
B 4.254 9.483 8.623
C 3.845 2.621 2.487
D 4.880 4.309 3.530
E 1.816 8.845 1.800
5
A 4.168 3.710 7.970
B 4.240 9.513 8.617
C 3.909 2.599 2.461
D 4.821 4.289 3.539
E 1.863 8.889 1.789
5
A 4.131 3.678 7.914
B 4.225 9.544 8.611
C 3.972 2.578 2.435
D 4.761 4.269 3.549
E 1.911 8.931 1.779
5
A 4.093 3.646 7.858
B 4.210 9.574 8.605
C 4.033 2.558 2.409
D 4.701 4.248 3.558
E 1.962 8.974 1.771
5
A 4.055 3.614 7.801
B 4.195 9.604 8.598
C 4.095 2.539 2.383
D 4.641 4.227 3.566
E 2.013 9.016 1.763
5
A 4.017 3.583 7.744
B 4.179 9.633 8.591
C 4.156 2.520 2.358
D 4.580 4.206 3.574
E 2.069 9.058 1.756
5
A 3.977 3.551 7.687
B 4.162 9.662 8.583
C 4.215 2.503 2.332
D 4.518 4.184 3.581
E 2.127 9.099 1.751
5
A 3.938 3.520 7.629
B 4.145 9.691 8.575
C 4.274 2.487 2.307
D 4.455 4.161 3.588
E 2.188 9.141 1.746
5
A 3.898 3.489 7.570
B 4.126 9.720 8.567
C 4.333 2.472 2.283
D 4.391 4.138 3.594
E 2.252 9.181 1.742
5
A 3.859 3.458 7.512
B 4.107 9.749 8.559
C 4.390 2.458 2.258
D 4.327 4.114 3.600
E 2.318 9.222 1.740
5
A 3.819 3.428 7.452
B 4.087 9.777 8.550
C 4.446 2.444 2.234
D 4.262 4.089 3.605
E 2.386 9.262 1.738
5
A 3.780 3.397 7.392
B 4.066 9.804 8.542
C 4.502 2.432 2.209
D 4.195 4.064 3.610
E 2.457 9.302 1.737
5
A 3.740 3.367 7.332
B 4.044 9.832 8.532
C 4.557 2.421 2.186
D 4.128 4.039 3.615
E 2.531 9.342 1.738
5
A 3.701 3.337 7.272
B 4.021 9.859 8.523
C 4.611 2.410 2.162
D 4.061 4.012 3.619
E 2.607 9.381 1.739
5
A 3.661 3.307 7.211
B 3.998 9.886 8.513
C 4.664 2.401 2.138
D 3.992 3.986 3.622
E 2.685 9.421 1.741
5
A 3.622 3.277 7.149
B 3.974 9.913 8.503
C 4.716 2.392 2.115
D 3.923 3.959 3.625
E 2.765 9.459 1.744
5
A 3.582 3.248 7.087
B 3.951 9.939 8.493
C 4.768 2.382 2.092
D 3.855 3.933 3.627
E 2.845 9.498 1.749
5
A 3.542 3.218 7.025
B 3.927 9.965 8.482
C 4.818 2.373 2.069
D 3.786 3.907 3.629
E 2.926 9.536 1.754
5
A 3.503 3.189 6.962
B 3.904 9.991 8.471
C 4.868 2.365 2.047
D 3.717 3.881 3.631
E 3.008 9.575 1.760
5
A 3.463 3.160 6.900
B 3.880 9.983 8.459
C 4.918 2.356 2.025
D 3.649 3.855 3.632
E 3.090 9.612 1.768
5
A 3.424 3.131 6.837
B 3.857 9.957 8.446
C 4.968 2.347 2.003
D 3.580 3.829 3.633
E 3.172 9.650 1.776
5
A 3.384 3.103 6.775
B 3.833 9.931 8.431
C 5.017 2.339 1.981
D 3.511 3.804 3.633
E 3.254 9.687 1.785
5
A 3.346 3.074 6.712
B 3.811 9.905 8.416
C 5.064 2.330 1.960
D 3.444 3.779 3.632
E 3.336 9.724 1.796
5
A 3.308 3.046 6.650
B 3.789 9.878 8.399
C 5.107 2.322 1.941
D 3.377 3.754 3.631
E 3.420 9.761 1.807
5
A 3.271 3.018 6.589
B 3.768 9.851 8.382
C 5.147 2.314 1.922
D 3.310 3.729 3.627
E 3.504 9.798 1.820
5
A 3.235 2.990 6.527
B 3.748 9.824 8.363
C 5.183 2.306 1.905
D 3.245 3.704 3.623
E 3.589 9.834 1.833
5
A 3.199 2.962 6.465
B 3.728 9.797 8.343
C 5.216 2.298 1.888
D 3.181 3.680 3.618
E 3.675 9.870 1.848
5
A 3.165 2.935 6.404
B 3.710 9.769 8.322
C 5.246 2.291 1.873
D 3.117 3.655 3.611
E 3.762 9.906 1.863
5
A 3.131 2.907 6.343
B 3.692 9.741 8.300
C 5.273 2.283 1.858
D 3.054 3.631 3.604
E 3.850 9.942 1.880
5
A 3.098 2.880 6.282
B 3.675 9.713 8.277
C 5.296 2.276 1.845
D 2.992 3.607 3.595
E 3.939 9.977 1.897
5
A 3.066 2.853 6.222
B 3.659 9.685 8.252
C 5.316 2.269 1.833
D 2.931 3.584 3.585
E 4.028 9.988 1.916
5
A 3.035 2.826 6.161
B 3.644 9.656 8.227
C 5.334 2.262 1.821
D 2.870 3.560 3.574
E 4.117 9.952 1.936
5
A 3.005 2.799 6.101
B 3.630 9.628 8.200
C 5.350 2.255 1.811
D 2.811 3.537 3.561
E 4.204 9.916 1.957
5
A 2.975 2.772 6.041
B 3.616 9.599 8.173
C 5.364 2.248 1.802
D 2.753 3.513 3.548
E 4.291 9.881 1.978
5
A 2.947 2.745 5.981
B 3.604 9.569 8.144
C 5.377 2.241 1.794
D 2.696 3.490 3.533
E 4.376 9.844 2.001
5
A 2.920 2.719 5.920
B 3.592 9.540 8.115
C 5.388 2.235 1.787
D 2.641 3.468 3.519
E 4.460 9.808 2.025
5
A 2.894 2.693 5.858
B 3.581 9.510 8.085
C 5.397 2.228 1.781
D 2.586 3.445 3.504
E 4.542 9.772 2.048
5
A 2.869 2.666 5.795
B 3.571 9.480 8.054
C 5.405 2.222 1.776
D 2.533 3.422 3.490
E 4.622 9.735 2.073
5
A 2.846 2.640 5.731
B 3.562 9.450 8.023
C 5.411 2.216 1.772
D 2.481 3.400 3.476
E 4.700 9.698 2.097
5
A 2.823 2.614 5.666
B 3.553 9.420 7.991
C 5.416 2.210 1.770
D 2.430 3.378 3.462
E 4.777 9.660 2.122
5
A 2.802 2.588 5.601
B 3.545 9.389 7.957
C 5.419 2.204 1.768
D 2.381 3.356 3.448
E 4.853 9.623 2.148
5
A 2.782 2.563 5.534
B 3.539 9.358 7.923
C 5.421 2.198 1.768
D 2.332 3.335 3.434
E 4.926 9.585 2.174
5
A 2.764 2.537 5.468
B 3.533 9.327 7.887
C 5.420 2.193 1.768
D 2.285 3.313 3.421
E 4.998 9.547 2.201
5
A 2.746 2.512 5.400
B 3.528 9.296 7.850
C 5.419 2.187 1.770
D 2.239 3.292 3.408
E 5.068 9.509 2.228
5
A 2.729 2.487 5.332
B 3.524 9.265 7.811
C 5.416 2.182 1.773
D 2.194 3.271 3.395
E 5.137 9.471 2.256
5
A 2.713 2.461 5.264
B 3.522 9.233 7.772
C 5.411 2.177 1.778
D 2.150 3.250 3.382
E 5.204 9.432 2.284
5
A 2.698 2.436 5.195
B 3.522 9.201 7.731
C 5.404 2.172 1.783
D 2.106 3.229 3.369
E 5.269 9.393 2.313
5
A 2.684 2.412 5.125
B 3.524 9.169 7.689
C 5.397 2.167 1.789
D 2.063 3.208 3.357
E 5.333 9.354 2.342
5
A 2.670 2.387 5.055
B 3.527 9.136 7.645
C 5.387 2.162 1.797
D 2.021 3.188 3.345
E 5.396 9.315 2.371
5
A 2.657 2.362 4.984
B 3.532 9.104 7.600
C 5.376 2.157 1.806
D 1.979 3.168 3.333
E 5.456 9.275 2.402
5
A 2.645 2.338 4.912
B 3.537 9.071 7.555
C 5.363 2.153 1.816
D 1.939 3.147 3.320
E 5.516 9.236 2.433
5
A 2.633 2.313 4.839
B 3.544 9.038 7.509
C 5.349 2.148 1.827
D 1.900 3.128 3.307
E 5.574 9.196 2.465
5
A 2.622 2.289 4.766
B 3.551 9.004 7.461
C 5.334 2.144 1.840
D 1.862 3.108 3.293
E 5.630 9.155 2.498
5
A 2.612 2.265 4.692
B 3.559 8.971 7.414
C 5.317 2.140 1.853
D 1.826 3.088 3.279
E 5.685 9.115 2.532
5
A 2.603 2.241 4.617
B 3.569 8.937 7.365
C 5.299 2.136 1.869
D 1.791 3.069 3.264
E 5.739 9.074 2.567
5
A 2.594 2.218 4.541
B 3.578 8.903 7.315
C 5.280 2.132 1.885
D 1.757 3.050 3.248
E 5.791 9.033 2.603
5
A 2.586 2.194 4.464
B 3.589 8.868 7.265
C 5.259 2.129 1.903
D 1.724 3.031 3.232
E 5.842 8.992 2.640
5
A 2.579 2.171 4.387
B 3.601 8.833 7.214
C 5.236 2.125 1.922
D 1.692 3.013 3.215
E 5.891 8.951 2.678
5
A 2.573 2.147 4.308
B 3.613 8.798 7.162
C 5.212 2.122 1.942
D 1.662 2.995 3.197
E 5.939 8.909 2.717
5
A 2.567 2.124 4.229
B 3.626 8.763 7.109
C 5.187 2.119 1.964
D 1.633 2.976 3.179
E 5.986 8.867 2.757
5
A 2.563 2.102 4.149
B 3.640 8.727 7.055
C 5.161 2.116 1.987
D 1.605 2.959 3.160
E 6.031 8.825 2.798
5
A 2.558 2.079 4.068
B 3.655 8.691 7.001
C 5.133 2.113 2.011
D 1.579 2.941 3.141
E 6.076 8.782 2.839
5
A 2.555 2.056 3.986
B 3.669 8.655 6.946
C 5.103 2.111 2.037
D 1.553 2.923 3.122
E 6.119 8.739 2.882
5
A 2.551 2.034 3.904
B 3.685 8.618 6.889
C 5.072 2.108 2.062
D 1.529 2.906 3.103
E 6.163 8.696 2.925
5
A 2.549 2.012 3.823
B 3.700 8.581 6.832
C 5.040 2.106 2.088
D 1.506 2.889 3.084
E 6.205 8.652 2.968
5
A 2.547 1.990 3.742
B 3.716 8.544 6.773
C 5.006 2.104 2.114
D 1.484 2.872 3.066
E 6.247 8.609 3.012
5
A 2.546 1.968 3.661
B 3.732 8.507 6.713
C 4.971 2.103 2.140
D 1.464 2.855 3.049
E 6.287 8.565 3.055
5
A 2.545 1.947 3.581
B 3.748 8.469 6.652
C 4.936 2.101 2.166
D 1.444 2.838 3.031
E 6.327 8.520 3.100
5
A 2.546 1.925 3.501
B 3.763 8.431 6.589
C 4.900 2.100 2.193
D 1.426 2.822 3.014
E 6.365 8.476 3.144
5
A 2.548 1.904 3.421
B 3.778 8.393 6.525
C 4.863 2.098 2.219
D 1.410 2.806 2.998
E 6.401 8.431 3.189
5
A 2.550 1.883 3.342
B 3.793 8.355 6.460
C 4.827 2.097 2.246
D 1.394 2.790 2.981
E 6.436 8.386 3.234
5
A 2.554 1.862 3.263
B 3.807 8.316 6.394
C 4.790 2.097 2.273
D 1.380 2.774 2.965
E 6.469 8.341 3.280
5
A 2.559 1.841 3.185
B 3.820 8.277 6.326
C 4.753 2.096 2.301
D 1.368 2.758 2.949
E 6.501 8.295 3.326
5
A 2.565 1.820 3.107
B 3.833 8.238 6.258
C 4.715 2.095 2.328
D 1.356 2.743 2.933
E 6.531 8.250 3.372
5
A 2.572 1.799 3.029
B 3.846 8.199 6.188
C 4.677 2.095 2.356
D 1.346 2.727 2.918
E 6.559 8.204 3.419
5
A 2.580 1.779 2.952
B 3.858 8.159 6.117
C 4.638 2.095 2.384
D 1.338 2.712 2.902
E 6.586 8.157 3.466
5
A 2.589 1.758 2.875
B 3.869 8.119 6.045
C 4.599 2.095 2.412
D 1.331 2.697 2.887
E 6.612 8.111 3.514
5
A 2.599 1.738 2.798
B 3.881 8.079 5.972
C 4.560 2.095 2.441
D 1.325 2.683 2.872
E 6.636 8.064 3.561
5
A 2.610 1.718 2.721
B 3.891 8.039 5.897
C 4.521 2.096 2.469
D 1.320 2.668 2.857
E 6.658 8.017 3.610
5
A 2.572 1.718 2.750
B 3.902 7.998 5.820
C 4.516 2.082 2.455
D 1.332 2.648 2.781
E 6.679 7.970 3.660
5
A 2.568 1.704 2.736
B 3.911 7.957 5.742
C 4.528 2.062 2.379
D 1.295 2.649 2.811
E 6.698 7.922 3.710
5
A 2.565 1.690 2.723
B 3.921 7.916 5.661
C 4.539 2.042 2.304
D 1.259 2.650 2.841
E 6.716 7.874 3.761
5
A 2.563 1.676 2.710
B 3.930 7.874 5.578
C 4.551 2.023 2.229
D 1.225 2.651 2.871
E 6.732 7.826 3.813
5
A 2.562 1.663 2.697
B 3.938 7.832 5.494
C 4.562 2.004 2.154
D 1.192 2.653 2.901
E 6.746 7.777 3.866
5
A 2.562 1.649 2.685
B 3.946 7.789 5.407
C 4.572 1.986 2.080
D 1.160 2.655 2.932
E 6.760 7.728 3.920
5
A 2.564 1.636 2.673
B 3.953 7.747 5.318
C 4.583 1.967 2.006
D 1.129 2.657 2.964
E 6.771 7.679 3.974
5
A 2.566 1.623 2.661
B 3.960 7.704 5.228
C 4.593 1.949 1.932
D 1.100 2.660 2.995
E 6.781 7.629 4.030
5
A 2.569 1.610 2.651
B 3.967 7.660 5.137
C 4.602 1.931 1.859
D 1.072 2.662 3.028
E 6.790 7.579 4.083
5
A 2.574 1.597 2.641
B 3.973 7.616 5.044
C 4.611 1.913 1.788
D 1.046 2.665 3.061
E 6.796 7.529 4.135
5
A 2.579 1.585 2.633
B 3.979 7.572 4.950
C 4.620 1.896 1.717
D 1.021 2.669 3.094
E 6.802 7.478 4.186
5
A 2.586 1.572 2.627
B 3.984 7.528 4.854
C 4.628 1.878 1.649
D 0.997 2.672 3.126
E 6.806 7.427 4.236
5
A 2.592 1.560 2.622
B 3.989 7.483 4.757
C 4.636 1.861 1.582
D 0.975 2.676 3.158
E 6.808 7.376 4.284
5
A 2.599 1.548 2.619
B 3.994 7.438 4.660
C 4.644 1.844 1.516
D 0.954 2.680 3.188
E 6.809 7.324 4.331
5
A 2.606 1.537 2.618
B 3.999 7.393 4.561
C 4.652 1.827 1.452
D 0.935 2.684 3.218
E 6.808 7.272 4.377
5
A 2.614 1.525 2.618
B 4.004 7.347 4.460
C 4.660 1.810 1.390
D 0.917 2.689 3.246
E 6.806 7.220 4.422
5
A 2.622 1.514 2.620
B 4.009 7.301 4.359
C 4.667 1.793 1.329
D 0.900 2.694 3.274
E 6.802 7.167 4.466
5
A 2.631 1.502 2.624
B 4.014 7.255 4.256
C 4.674 1.777 1.270
D 0.885 2.699 3.301
E 6.795 7.114 4.508
5
A 2.642 1.491 2.629
B 4.018 7.208 4.152
C 4.681 1.761 1.213
D 0.871 2.704 3.328
E 6.787 7.061 4.550
5
A 2.653 1.480 2.636
B 4.023 7.162 4.047
C 4.688 1.745 1.157
D 0.859 2.710 3.353
E 6.777 7.008 4.590
5
A 2.666 1.470 2.645
B 4.027 7.114 3.941
C 4.694 1.729 1.102
D 0.848 2.716 3.378
E 6.765 6.954 4.629
5
A 2.679 1.459 2.654
B 4.031 7.067 3.834
C 4.701 1.713 1.050
D 0.838 2.722 3.401
E 6.751 6.899 4.666
5
A 2.694 1.449 2.665
B 4.034 7.019 3.726
C 4.707 1.698 0.999
D 0.830 2.729 3.424
E 6.735 6.845 4.703
5
A 2.710 1.439 2.675
B 4.038 6.971 3.618
C 4.713 1.683 0.951
D 0.823 2.736 3.447
E 6.717 6.789 4.738
5
A 2.726 1.429 2.685
B 4.041 6.922 3.509
C 4.718 1.668 0.904
D 0.817 2.743 3.469
E 6.697 6.734 4.772
5
A 2.744 1.420 2.696
B 4.044 6.873 3.400
C 4.724 1.653 0.859
D 0.813 2.751 3.491
E 6.675 6.677 4.806
5
A 2.763 1.411 2.706
B 4.047 6.823 3.290
C 4.729 1.639 0.816
D 0.810 2.759 3.512
E 6.651 6.621 4.838
5
A 2.783 1.402 2.716
B 4.050 6.773 3.181
C 4.734 1.625 0.774
D 0.808 2.768 3.533
E 6.625 6.563 4.869
5
A 2.804 1.393 2.727
B 4.052 6.723 3.071
C 4.739 1.611 0.735
D 0.808 2.777 3.554
E 6.598 6.506 4.899
5
A 2.826 1.385 2.737
B 4.054 6.672 2.960
C 4.743 1.597 0.697
D 0.809 2.786 3.574
E 6.568 6.448 4.929
5
A 2.849 1.377 2.747
B 4.056 6.620 2.849
C 4.748 1.584 0.661
D 0.811 2.796 3.594
E 6.536 6.389 4.956
5
A 2.873 1.369 2.758
B 4.058 6.568 2.739
C 4.752 1.571 0.628
D 0.815 2.807 3.614
E 6.502 6.330 4.981
5
A 2.898 1.361 2.768
B 4.060 6.516 2.628
C 4.756 1.558 0.597
D 0.820 2.817 3.633
E 6.467 6.270 5.005
